<routes>
<vType id="car" type="passenger" length="5" accel="3.5" decel="2.2" sigma="1.0"/>

<!--2020-04-20 --><!--02시--><!--1--><flow id="carflow01" type="car" begin="0" end="3600" vehsPerHour="201" from="484462990"  to="667354420" via="706712805" departLane="best" />
<!--2--><flow id="carflow02" type="car" begin="0" end="3600" vehsPerHour="1" from=" 583307812#2" to="667354420" departLane="best" />
<!--3--><flow id="carflow03" type="car" begin="0" end="3600" vehsPerHour="22" from="706712811" to="667354420" via = "706712805"  departLane="best" />
<!--4--><flow id="carflow04" type="car" begin="0" end="3600" vehsPerHour="14" from="706712811" to="667354420" via = "741638791#0" departLane="best" />
<!--5--><flow id="carflow05" type="car" begin="0" end="3600" vehsPerHour="20" from="484462990"  to="669301561" departLane="best" />
<!--6--><flow id="carflow06" type="car" begin="0" end="3600" vehsPerHour="1" from="583307812#2" to="669301561" departLane="best" />
<!--7--><flow id="carflow07" type="car" begin="0" end="3600" vehsPerHour="20" from="-621392371#0" to="669301561" via = "-706712805" departLane="best" />
<!--8--><flow id="carflow08" type="car" begin="0" end="3600" vehsPerHour="4" from="-621392371#0" to="669301561" departLane="best" />
<!--9--><flow id="carflow09" type="car" begin="0" end="3600" vehsPerHour="7" from="-621392371#0" to="-583307812#2" departLane="best" />
<!--10--><flow id="carflow10" type="car" begin="0" end="3600" vehsPerHour="2" from="706712811" to="-583307812#2" departLane="best" />
<!--11--><flow id="carflow11" type="car" begin="0" end="3600" vehsPerHour="4" from="484462990"  to="-583307812#2" via = "706712805" departLane="best" />
<!--12--><flow id="carflow12" type="car" begin="0" end="3600" vehsPerHour="2" from="484462990"  to="-583307812#2" via = "741638791#0" departLane="best" />
<!--13--><flow id="carflow13" type="car" begin="0" end="3600" vehsPerHour="180" from="-621392371#0" to="-667354421" departLane="best" />
<!--14--><flow id="carflow14" type="car" begin="0" end="3600" vehsPerHour="3" from="706712811" to="-667354421" departLane="best" />
<!--15--><flow id="carflow15" type="car" begin="0" end="3600" vehsPerHour="1" from="583307812#2" to="-667354421" via = "706712805" departLane="best" />
<!--16--><flow id="carflow16" type="car" begin="0" end="3600" vehsPerHour="3" from="583307812#2" to="-667354421" via = "741638791#0" departLane="best" />

<!--2020-04-20 --><!--03시--><!--1--><flow id="carflow17" type="car" begin="3600" end="7200" vehsPerHour="137" from="484462990"  to="667354420" via="706712805" departLane="best" />
<!--2--><flow id="carflow18" type="car" begin="3600" end="7200" vehsPerHour="3" from=" 583307812#2" to="667354420" departLane="best" />
<!--3--><flow id="carflow19" type="car" begin="3600" end="7200" vehsPerHour="15" from="706712811" to="667354420" via = "706712805"  departLane="best" />
<!--4--><flow id="carflow20" type="car" begin="3600" end="7200" vehsPerHour="14" from="706712811" to="667354420" via = "741638791#0" departLane="best" />
<!--5--><flow id="carflow21" type="car" begin="3600" end="7200" vehsPerHour="7" from="484462990"  to="669301561" departLane="best" />
<!--6--><flow id="carflow22" type="car" begin="3600" end="7200" vehsPerHour="1" from="583307812#2" to="669301561" departLane="best" />
<!--7--><flow id="carflow23" type="car" begin="3600" end="7200" vehsPerHour="7" from="-621392371#0" to="669301561" via = "-706712805" departLane="best" />
<!--8--><flow id="carflow24" type="car" begin="3600" end="7200" vehsPerHour="6" from="-621392371#0" to="669301561" departLane="best" />
<!--9--><flow id="carflow25" type="car" begin="3600" end="7200" vehsPerHour="3" from="-621392371#0" to="-583307812#2" departLane="best" />
<!--10--><flow id="carflow26" type="car" begin="3600" end="7200" vehsPerHour="2" from="706712811" to="-583307812#2" departLane="best" />
<!--11--><flow id="carflow27" type="car" begin="3600" end="7200" vehsPerHour="4" from="484462990"  to="-583307812#2" via = "706712805" departLane="best" />
<!--12--><flow id="carflow28" type="car" begin="3600" end="7200" vehsPerHour="2" from="484462990"  to="-583307812#2" via = "741638791#0" departLane="best" />
<!--13--><flow id="carflow29" type="car" begin="3600" end="7200" vehsPerHour="154" from="-621392371#0" to="-667354421" departLane="best" />
<!--14--><flow id="carflow30" type="car" begin="3600" end="7200" vehsPerHour="4" from="706712811" to="-667354421" departLane="best" />
<!--15--><flow id="carflow31" type="car" begin="3600" end="7200" vehsPerHour="1" from="583307812#2" to="-667354421" via = "706712805" departLane="best" />
<!--16--><flow id="carflow32" type="car" begin="3600" end="7200" vehsPerHour="5" from="583307812#2" to="-667354421" via = "741638791#0" departLane="best" />

<!--2020-04-20 --><!--04시--><!--1--><flow id="carflow33" type="car" begin="7200" end="10800" vehsPerHour="173" from="484462990"  to="667354420" via="706712805" departLane="best" />
<!--2--><flow id="carflow34" type="car" begin="7200" end="10800" vehsPerHour="1" from=" 583307812#2" to="667354420" departLane="best" />
<!--3--><flow id="carflow35" type="car" begin="7200" end="10800" vehsPerHour="19" from="706712811" to="667354420" via = "706712805"  departLane="best" />
<!--4--><flow id="carflow36" type="car" begin="7200" end="10800" vehsPerHour="13" from="706712811" to="667354420" via = "741638791#0" departLane="best" />
<!--5--><flow id="carflow37" type="car" begin="7200" end="10800" vehsPerHour="12" from="484462990"  to="669301561" departLane="best" />
<!--6--><flow id="carflow38" type="car" begin="7200" end="10800" vehsPerHour="1" from="583307812#2" to="669301561" departLane="best" />
<!--7--><flow id="carflow39" type="car" begin="7200" end="10800" vehsPerHour="12" from="-621392371#0" to="669301561" via = "-706712805" departLane="best" />
<!--8--><flow id="carflow40" type="car" begin="7200" end="10800" vehsPerHour="7" from="-621392371#0" to="669301561" departLane="best" />
<!--9--><flow id="carflow41" type="car" begin="7200" end="10800" vehsPerHour="3" from="-621392371#0" to="-583307812#2" departLane="best" />
<!--10--><flow id="carflow42" type="car" begin="7200" end="10800" vehsPerHour="3" from="706712811" to="-583307812#2" departLane="best" />
<!--11--><flow id="carflow43" type="car" begin="7200" end="10800" vehsPerHour="5" from="484462990"  to="-583307812#2" via = "706712805" departLane="best" />
<!--12--><flow id="carflow44" type="car" begin="7200" end="10800" vehsPerHour="3" from="484462990"  to="-583307812#2" via = "741638791#0" departLane="best" />
<!--13--><flow id="carflow45" type="car" begin="7200" end="10800" vehsPerHour="273" from="-621392371#0" to="-667354421" departLane="best" />
<!--14--><flow id="carflow46" type="car" begin="7200" end="10800" vehsPerHour="5" from="706712811" to="-667354421" departLane="best" />
<!--15--><flow id="carflow47" type="car" begin="7200" end="10800" vehsPerHour="1" from="583307812#2" to="-667354421" via = "706712805" departLane="best" />
<!--16--><flow id="carflow48" type="car" begin="7200" end="10800" vehsPerHour="6" from="583307812#2" to="-667354421" via = "741638791#0" departLane="best" />

<!--2020-04-20 --><!--08시--><!--1--><flow id="carflow49" type="car" begin="10800" end="14400" vehsPerHour="740" from="484462990"  to="667354420" via="706712805" departLane="best" />
<!--2--><flow id="carflow50" type="car" begin="10800" end="14400" vehsPerHour="32" from=" 583307812#2" to="667354420" departLane="best" />
<!--3--><flow id="carflow51" type="car" begin="10800" end="14400" vehsPerHour="264" from="706712811" to="667354420" via = "706712805"  departLane="best" />
<!--4--><flow id="carflow52" type="car" begin="10800" end="14400" vehsPerHour="60" from="706712811" to="667354420" via = "741638791#0" departLane="best" />
<!--5--><flow id="carflow53" type="car" begin="10800" end="14400" vehsPerHour="347" from="484462990"  to="669301561" departLane="best" />
<!--6--><flow id="carflow54" type="car" begin="10800" end="14400" vehsPerHour="20" from="583307812#2" to="669301561" departLane="best" />
<!--7--><flow id="carflow55" type="car" begin="10800" end="14400" vehsPerHour="347" from="-621392371#0" to="669301561" via = "-706712805" departLane="best" />
<!--8--><flow id="carflow56" type="car" begin="10800" end="14400" vehsPerHour="113" from="-621392371#0" to="669301561" departLane="best" />
<!--9--><flow id="carflow57" type="car" begin="10800" end="14400" vehsPerHour="232" from="-621392371#0" to="-583307812#2" departLane="best" />
<!--10--><flow id="carflow58" type="car" begin="10800" end="14400" vehsPerHour="51" from="706712811" to="-583307812#2" departLane="best" />
<!--11--><flow id="carflow59" type="car" begin="10800" end="14400" vehsPerHour="101" from="484462990"  to="-583307812#2" via = "706712805" departLane="best" />
<!--12--><flow id="carflow60" type="car" begin="10800" end="14400" vehsPerHour="51" from="484462990"  to="-583307812#2" via = "741638791#0" departLane="best" />
<!--13--><flow id="carflow61" type="car" begin="10800" end="14400" vehsPerHour="812" from="-621392371#0" to="-667354421" departLane="best" />
<!--13-2--><flow id="carflow61_2" type="car" begin="10800" end="14400" vehsPerHour="121" from="-621392371#0" to="-468604871#1" departLane="best" />
<!--13-3--><flow id="carflow61_3" type="car" begin="10800" end="14400" vehsPerHour="50" from="468604871#1" to="-583307812#2" departLane="best" />
<!--13-4--><flow id="carflow61_4" type="car" begin="10800" end="14400" vehsPerHour="50" from="468604871#1" to="669301561" departLane="best" />
<!--13-5--><flow id="carflow61_5" type="car" begin="10800" end="14400" vehsPerHour="50" from="-325116753#0" to="667354420" departLane="best" />
<!--13-6--><flow id="carflow61_6" type="car" begin="10800" end="14400" vehsPerHour="30" from="-325116753#0" to="-583307812#2" departLane="best" />
<!--14--><flow id="carflow62" type="car" begin="10800" end="14400" vehsPerHour="82" from="706712811" to="-667354421" departLane="best" />
<!--15--><flow id="carflow63" type="car" begin="10800" end="14400" vehsPerHour="20" from="583307812#2" to="-667354421" via = "706712805" departLane="best" />
<!--16--><flow id="carflow64" type="car" begin="10800" end="14400" vehsPerHour="164" from="583307812#2" to="-667354421" via = "741638791#0" departLane="best" />

<!--2020-04-20 --><!--09시--><!--1--><flow id="carflow65" type="car" begin="14400" end="18000" vehsPerHour="734" from="484462990"  to="667354420" via="706712805" departLane="best" />
<!--2--><flow id="carflow66" type="car" begin="14400" end="18000" vehsPerHour="19" from=" 583307812#2" to="667354420" departLane="best" />
<!--3--><flow id="carflow67" type="car" begin="14400" end="18000" vehsPerHour="237" from="706712811" to="667354420" via = "706712805"  departLane="best" />
<!--4--><flow id="carflow68" type="car" begin="14400" end="18000" vehsPerHour="50" from="706712811" to="667354420" via = "741638791#0" departLane="best" />
<!--5--><flow id="carflow69" type="car" begin="14400" end="18000" vehsPerHour="308" from="484462990"  to="669301561" departLane="best" />
<!--6--><flow id="carflow70" type="car" begin="14400" end="18000" vehsPerHour="13" from="583307812#2" to="669301561" departLane="best" />
<!--7--><flow id="carflow71" type="car" begin="14400" end="18000" vehsPerHour="308" from="-621392371#0" to="669301561" via = "-706712805" departLane="best" />
<!--8--><flow id="carflow72" type="car" begin="14400" end="18000" vehsPerHour="94" from="-621392371#0" to="669301561" departLane="best" />
<!--9--><flow id="carflow73" type="car" begin="14400" end="18000" vehsPerHour="222" from="-621392371#0" to="-583307812#2" departLane="best" />
<!--10--><flow id="carflow74" type="car" begin="14400" end="18000" vehsPerHour="37" from="706712811" to="-583307812#2" departLane="best" />
<!--11--><flow id="carflow75" type="car" begin="14400" end="18000" vehsPerHour="123" from="484462990"  to="-583307812#2" via = "706712805" departLane="best" />
<!--12--><flow id="carflow76" type="car" begin="14400" end="18000" vehsPerHour="37" from="484462990"  to="-583307812#2" via = "741638791#0" departLane="best" />
<!--13--><flow id="carflow77" type="car" begin="14400" end="18000" vehsPerHour="905" from="-621392371#0" to="-667354421" departLane="best" />
<!--13-2--><flow id="carflow77_2" type="car" begin="14400" end="18000" vehsPerHour="150" from="-621392371#0" to="-468604871#1" departLane="best" />
<!--13-3--><flow id="carflow77_3" type="car" begin="14400" end="18000" vehsPerHour="50" from="468604871#1" to="-583307812#2" departLane="best" />
<!--13-4--><flow id="carflow77_4" type="car" begin="14400" end="18000" vehsPerHour="50" from="468604871#1" to="669301561" departLane="best" />
<!--13-5--><flow id="carflow77_5" type="car" begin="14400" end="18000" vehsPerHour="50" from="-325116753#0" to="667354420" departLane="best" />
<!--13-6--><flow id="carflow77_6" type="car" begin="14400" end="18000" vehsPerHour="30" from="-325116753#0" to="-583307812#2" departLane="best" />
<!--14--><flow id="carflow78" type="car" begin="14400" end="18000" vehsPerHour="65" from="706712811" to="-667354421" departLane="best" />
<!--15--><flow id="carflow79" type="car" begin="14400" end="18000" vehsPerHour="26" from="583307812#2" to="-667354421" via = "706712805" departLane="best" />
<!--16--><flow id="carflow80" type="car" begin="14400" end="18000" vehsPerHour="92" from="583307812#2" to="-667354421" via = "741638791#0" departLane="best" />

<!--2020-04-20 --><!--10시--><!--1--><flow id="carflow81" type="car" begin="18000" end="21600" vehsPerHour="697" from="484462990"  to="667354420" via="706712805" departLane="best" />
<!--2--><flow id="carflow82" type="car" begin="18000" end="21600" vehsPerHour="19" from=" 583307812#2" to="667354420" departLane="best" />
<!--3--><flow id="carflow83" type="car" begin="18000" end="21600" vehsPerHour="199" from="706712811" to="667354420" via = "706712805"  departLane="best" />
<!--4--><flow id="carflow84" type="car" begin="18000" end="21600" vehsPerHour="54" from="706712811" to="667354420" via = "741638791#0" departLane="best" />
<!--5--><flow id="carflow85" type="car" begin="18000" end="21600" vehsPerHour="254" from="484462990"  to="669301561" departLane="best" />
<!--6--><flow id="carflow86" type="car" begin="18000" end="21600" vehsPerHour="9" from="583307812#2" to="669301561" departLane="best" />
<!--7--><flow id="carflow87" type="car" begin="18000" end="21600" vehsPerHour="254" from="-621392371#0" to="669301561" via = "-706712805" departLane="best" />
<!--8--><flow id="carflow88" type="car" begin="18000" end="21600" vehsPerHour="107" from="-621392371#0" to="669301561" departLane="best" />
<!--9--><flow id="carflow89" type="car" begin="18000" end="21600" vehsPerHour="222" from="-621392371#0" to="-583307812#2" departLane="best" />
<!--10--><flow id="carflow90" type="car" begin="18000" end="21600" vehsPerHour="27" from="706712811" to="-583307812#2" departLane="best" />
<!--11--><flow id="carflow91" type="car" begin="18000" end="21600" vehsPerHour="94" from="484462990"  to="-583307812#2" via = "706712805" departLane="best" />
<!--12--><flow id="carflow92" type="car" begin="18000" end="21600" vehsPerHour="27" from="484462990"  to="-583307812#2" via = "741638791#0" departLane="best" />
<!--13--><flow id="carflow93" type="car" begin="18000" end="21600" vehsPerHour="781" from="-621392371#0" to="-667354421" departLane="best" />
<!--13-2--><flow id="carflow93_2" type="car" begin="18000" end="21600" vehsPerHour="120" from="-621392371#0" to="-468604871#1" departLane="best" />
<!--13-3--><flow id="carflow93_3" type="car" begin="18000" end="21600" vehsPerHour="50" from="468604871#1" to="-583307812#2" departLane="best" />
<!--13-4--><flow id="carflow93_4" type="car" begin="18000" end="21600" vehsPerHour="50" from="468604871#1" to="669301561" departLane="best" />
<!--13-5--><flow id="carflow93_5" type="car" begin="18000" end="21600" vehsPerHour="50" from="-325116753#0" to="667354420" departLane="best" />
<!--13-6--><flow id="carflow93_6" type="car" begin="18000" end="21600" vehsPerHour="30" from="-325116753#0" to="-583307812#2" departLane="best" />
<!--14--><flow id="carflow94" type="car" begin="18000" end="21600" vehsPerHour="67" from="706712811" to="-667354421" departLane="best" />
<!--15--><flow id="carflow95" type="car" begin="18000" end="21600" vehsPerHour="18" from="583307812#2" to="-667354421" via = "706712805" departLane="best" />
<!--16--><flow id="carflow96" type="car" begin="18000" end="21600" vehsPerHour="67" from="583307812#2" to="-667354421" via = "741638791#0" departLane="best" />

<!--2020-04-20 --><!--13시--><!--1--><flow id="carflow97" type="car" begin="21600" end="25200" vehsPerHour="666" from="484462990"  to="667354420" via="706712805" departLane="best" />
<!--2--><flow id="carflow98" type="car" begin="21600" end="25200" vehsPerHour="21" from=" 583307812#2" to="667354420" departLane="best" />
<!--3--><flow id="carflow99" type="car" begin="21600" end="25200" vehsPerHour="196" from="706712811" to="667354420" via = "706712805"  departLane="best" />
<!--4--><flow id="carflow100" type="car" begin="21600" end="25200" vehsPerHour="39" from="706712811" to="667354420" via = "741638791#0" departLane="best" />
<!--5--><flow id="carflow101" type="car" begin="21600" end="25200" vehsPerHour="267" from="484462990"  to="669301561" departLane="best" />
<!--6--><flow id="carflow102" type="car" begin="21600" end="25200" vehsPerHour="12" from="583307812#2" to="669301561" departLane="best" />
<!--7--><flow id="carflow103" type="car" begin="21600" end="25200" vehsPerHour="267" from="-621392371#0" to="669301561" via = "-706712805" departLane="best" />
<!--8--><flow id="carflow104" type="car" begin="21600" end="25200" vehsPerHour="95" from="-621392371#0" to="669301561" departLane="best" />
<!--9--><flow id="carflow105" type="car" begin="21600" end="25200" vehsPerHour="220" from="-621392371#0" to="-583307812#2" departLane="best" />
<!--10--><flow id="carflow106" type="car" begin="21600" end="25200" vehsPerHour="30" from="706712811" to="-583307812#2" departLane="best" />
<!--11--><flow id="carflow107" type="car" begin="21600" end="25200" vehsPerHour="102" from="484462990"  to="-583307812#2" via = "706712805" departLane="best" />
<!--12--><flow id="carflow108" type="car" begin="21600" end="25200" vehsPerHour="30" from="484462990"  to="-583307812#2" via = "741638791#0" departLane="best" />
<!--13--><flow id="carflow109" type="car" begin="21600" end="25200" vehsPerHour="632" from="-621392371#0" to="-667354421" departLane="best" />
<!--13-2--><flow id="carflow109_2" type="car" begin="21600" end="25200" vehsPerHour="60" from="-621392371#0" to="-468604871#1" departLane="best" />
<!--13-3--><flow id="carflow109_3" type="car" begin="21600" end="25200" vehsPerHour="50" from="468604871#1" to="-583307812#2" departLane="best" />
<!--13-4--><flow id="carflow109_4" type="car" begin="21600" end="25200" vehsPerHour="50" from="468604871#1" to="669301561" departLane="best" />
<!--13-5--><flow id="carflow109_5" type="car" begin="21600" end="25200" vehsPerHour="50" from="-325116753#0" to="667354420" departLane="best" />
<!--13-6--><flow id="carflow109_6" type="car" begin="21600" end="25200" vehsPerHour="30" from="-325116753#0" to="-583307812#2" departLane="best" />
<!--14--><flow id="carflow110" type="car" begin="21600" end="25200" vehsPerHour="62" from="706712811" to="-667354421" departLane="best" />
<!--15--><flow id="carflow111" type="car" begin="21600" end="25200" vehsPerHour="12" from="583307812#2" to="-667354421" via = "706712805" departLane="best" />
<!--16--><flow id="carflow112" type="car" begin="21600" end="25200" vehsPerHour="100" from="583307812#2" to="-667354421" via = "741638791#0" departLane="best" />

<!--2020-04-20 --><!--14시--><!--1--><flow id="carflow113" type="car" begin="25200" end="28800" vehsPerHour="547" from="484462990"  to="667354420" via="706712805" departLane="best" />
<!--2--><flow id="carflow114" type="car" begin="25200" end="28800" vehsPerHour="24" from=" 583307812#2" to="667354420" departLane="best" />
<!--3--><flow id="carflow115" type="car" begin="25200" end="28800" vehsPerHour="183" from="706712811" to="667354420" via = "706712805"  departLane="best" />
<!--4--><flow id="carflow116" type="car" begin="25200" end="28800" vehsPerHour="40" from="706712811" to="667354420" via = "741638791#0" departLane="best" />
<!--5--><flow id="carflow117" type="car" begin="25200" end="28800" vehsPerHour="305" from="484462990"  to="669301561" departLane="best" />
<!--6--><flow id="carflow118" type="car" begin="25200" end="28800" vehsPerHour="17" from="583307812#2" to="669301561" departLane="best" />
<!--7--><flow id="carflow119" type="car" begin="25200" end="28800" vehsPerHour="305" from="-621392371#0" to="669301561" via = "-706712805" departLane="best" />
<!--8--><flow id="carflow120" type="car" begin="25200" end="28800" vehsPerHour="86" from="-621392371#0" to="669301561" departLane="best" />
<!--9--><flow id="carflow121" type="car" begin="25200" end="28800" vehsPerHour="220" from="-621392371#0" to="-583307812#2" departLane="best" />
<!--10--><flow id="carflow122" type="car" begin="25200" end="28800" vehsPerHour="37" from="706712811" to="-583307812#2" departLane="best" />
<!--11--><flow id="carflow123" type="car" begin="25200" end="28800" vehsPerHour="94" from="484462990"  to="-583307812#2" via = "706712805" departLane="best" />
<!--12--><flow id="carflow124" type="car" begin="25200" end="28800" vehsPerHour="37" from="484462990"  to="-583307812#2" via = "741638791#0" departLane="best" />
<!--13--><flow id="carflow125" type="car" begin="25200" end="28800" vehsPerHour="678" from="-621392371#0" to="-667354421" departLane="best" />
<!--13-2--><flow id="carflow125_2" type="car" begin="25200" end="28800" vehsPerHour="47" from="-621392371#0" to="-468604871#1" departLane="best" />
<!--13-3--><flow id="carflow125_3" type="car" begin="25200" end="28800" vehsPerHour="50" from="468604871#1" to="-583307812#2" departLane="best" />
<!--13-4--><flow id="carflow125_4" type="car" begin="25200" end="28800" vehsPerHour="50" from="468604871#1" to="669301561" departLane="best" />
<!--13-5--><flow id="carflow125_5" type="car" begin="25200" end="28800" vehsPerHour="50" from="-325116753#0" to="667354420" departLane="best" />
<!--13-6--><flow id="carflow125_6" type="car" begin="25200" end="28800" vehsPerHour="30" from="-325116753#0" to="-583307812#2" departLane="best" />
<!--14--><flow id="carflow126" type="car" begin="25200" end="28800" vehsPerHour="61" from="706712811" to="-667354421" departLane="best" />
<!--15--><flow id="carflow127" type="car" begin="25200" end="28800" vehsPerHour="17" from="583307812#2" to="-667354421" via = "706712805" departLane="best" />
<!--16--><flow id="carflow128" type="car" begin="25200" end="28800" vehsPerHour="142" from="583307812#2" to="-667354421" via = "741638791#0" departLane="best" />

<!--2020-04-20 --><!--15시--><!--1--><flow id="carflow129" type="car" begin="28800" end="32400" vehsPerHour="790" from="484462990"  to="667354420" via="706712805" departLane="best" />
<!--2--><flow id="carflow130" type="car" begin="28800" end="32400" vehsPerHour="25" from=" 583307812#2" to="667354420" departLane="best" />
<!--3--><flow id="carflow131" type="car" begin="28800" end="32400" vehsPerHour="198" from="706712811" to="667354420" via = "706712805"  departLane="best" />
<!--4--><flow id="carflow132" type="car" begin="28800" end="32400" vehsPerHour="53" from="706712811" to="667354420" via = "741638791#0" departLane="best" />
<!--5--><flow id="carflow133" type="car" begin="28800" end="32400" vehsPerHour="290" from="484462990"  to="669301561" departLane="best" />
<!--6--><flow id="carflow134" type="car" begin="28800" end="32400" vehsPerHour="14" from="583307812#2" to="669301561" departLane="best" />
<!--7--><flow id="carflow135" type="car" begin="28800" end="32400" vehsPerHour="290" from="-621392371#0" to="669301561" via = "-706712805" departLane="best" />
<!--8--><flow id="carflow136" type="car" begin="28800" end="32400" vehsPerHour="106" from="-621392371#0" to="669301561" departLane="best" />
<!--9--><flow id="carflow137" type="car" begin="28800" end="32400" vehsPerHour="222" from="-621392371#0" to="-583307812#2" departLane="best" />
<!--10--><flow id="carflow138" type="car" begin="28800" end="32400" vehsPerHour="32" from="706712811" to="-583307812#2" departLane="best" />
<!--11--><flow id="carflow139" type="car" begin="28800" end="32400" vehsPerHour="93" from="484462990"  to="-583307812#2" via = "706712805" departLane="best" />
<!--12--><flow id="carflow140" type="car" begin="28800" end="32400" vehsPerHour="32" from="484462990"  to="-583307812#2" via = "741638791#0" departLane="best" />
<!--13--><flow id="carflow141" type="car" begin="28800" end="32400" vehsPerHour="529" from="-621392371#0" to="-667354421" departLane="best" />
<!--13-2--><flow id="carflow141_2" type="car" begin="28800" end="32400" vehsPerHour="97" from="-621392371#0" to="-468604871#1" departLane="best" />
<!--13-3--><flow id="carflow141_3" type="car" begin="28800" end="32400" vehsPerHour="50" from="468604871#1" to="-583307812#2" departLane="best" />
<!--13-4--><flow id="carflow141_4" type="car" begin="28800" end="32400" vehsPerHour="50" from="468604871#1" to="669301561" departLane="best" />
<!--13-5--><flow id="carflow141_5" type="car" begin="28800" end="32400" vehsPerHour="50" from="-325116753#0" to="667354420" departLane="best" />
<!--13-6--><flow id="carflow141_6" type="car" begin="28800" end="32400" vehsPerHour="30" from="-325116753#0" to="-583307812#2" departLane="best" />
<!--14--><flow id="carflow142" type="car" begin="28800" end="32400" vehsPerHour="69" from="706712811" to="-667354421" departLane="best" />
<!--15--><flow id="carflow143" type="car" begin="28800" end="32400" vehsPerHour="14" from="583307812#2" to="-667354421" via = "706712805" departLane="best" />
<!--16--><flow id="carflow144" type="car" begin="28800" end="32400" vehsPerHour="113" from="583307812#2" to="-667354421" via = "741638791#0" departLane="best" />

<!--2020-04-20 --><!--17시--><!--1--><flow id="carflow145" type="car" begin="32400" end="36000" vehsPerHour="878" from="484462990"  to="667354420" via="706712805" departLane="best" />
<!--2--><flow id="carflow146" type="car" begin="32400" end="36000" vehsPerHour="45" from=" 583307812#2" to="667354420" departLane="best" />
<!--3--><flow id="carflow147" type="car" begin="32400" end="36000" vehsPerHour="219" from="706712811" to="667354420" via = "706712805"  departLane="best" />
<!--4--><flow id="carflow148" type="car" begin="32400" end="36000" vehsPerHour="28" from="706712811" to="667354420" via = "741638791#0" departLane="best" />
<!--5--><flow id="carflow149" type="car" begin="32400" end="36000" vehsPerHour="278" from="484462990"  to="669301561" departLane="best" />
<!--6--><flow id="carflow150" type="car" begin="32400" end="36000" vehsPerHour="21" from="583307812#2" to="669301561" departLane="best" />
<!--7--><flow id="carflow151" type="car" begin="32400" end="36000" vehsPerHour="378" from="-621392371#0" to="669301561" via = "-706712805" departLane="best" />
<!--8--><flow id="carflow152" type="car" begin="32400" end="36000" vehsPerHour="122" from="-621392371#0" to="669301561" departLane="best" />
<!--9--><flow id="carflow153" type="car" begin="32400" end="36000" vehsPerHour="233" from="-621392371#0" to="-583307812#2" departLane="best" />
<!--10--><flow id="carflow154" type="car" begin="32400" end="36000" vehsPerHour="40" from="706712811" to="-583307812#2" departLane="best" />
<!--11--><flow id="carflow155" type="car" begin="32400" end="36000" vehsPerHour="110" from="484462990"  to="-583307812#2" via = "706712805" departLane="best" />
<!--12--><flow id="carflow156" type="car" begin="32400" end="36000" vehsPerHour="40" from="484462990"  to="-583307812#2" via = "741638791#0" departLane="best" />
<!--13--><flow id="carflow157" type="car" begin="32400" end="36000" vehsPerHour="836" from="-621392371#0" to="-667354421" departLane="best" />
<!--13-2--><flow id="carflow157_2" type="car" begin="32400" end="36000" vehsPerHour="30" from="-621392371#0" to="-468604871#1" departLane="best" />
<!--13-3--><flow id="carflow157_3" type="car" begin="32400" end="36000" vehsPerHour="50" from="468604871#1" to="-583307812#2" departLane="best" />
<!--13-4--><flow id="carflow157_4" type="car" begin="32400" end="36000" vehsPerHour="50" from="468604871#1" to="669301561" departLane="best" />
<!--13-5--><flow id="carflow157_5" type="car" begin="32400" end="36000" vehsPerHour="50" from="-325116753#0" to="667354420" departLane="best" />
<!--13-6--><flow id="carflow157_6" type="car" begin="32400" end="36000" vehsPerHour="30" from="-325116753#0" to="-583307812#2" departLane="best" />
<!--14--><flow id="carflow158" type="car" begin="32400" end="36000" vehsPerHour="101" from="706712811" to="-667354421" departLane="best" />
<!--15--><flow id="carflow159" type="car" begin="32400" end="36000" vehsPerHour="21" from="583307812#2" to="-667354421" via = "706712805" departLane="best" />
<!--16--><flow id="carflow160" type="car" begin="32400" end="36000" vehsPerHour="176" from="583307812#2" to="-667354421" via = "741638791#0" departLane="best" />

<!--2020-04-20 --><!--18시--><!--1--><flow id="carflow161" type="car" begin="36000" end="39600" vehsPerHour="1006" from="484462990"  to="667354420" via="706712805" departLane="best" />
<!--2--><flow id="carflow162" type="car" begin="36000" end="39600" vehsPerHour="54" from=" 583307812#2" to="667354420" departLane="best" />
<!--3--><flow id="carflow163" type="car" begin="36000" end="39600" vehsPerHour="245" from="706712811" to="667354420" via = "706712805"  departLane="best" />
<!--4--><flow id="carflow164" type="car" begin="36000" end="39600" vehsPerHour="57" from="706712811" to="667354420" via = "741638791#0" departLane="best" />
<!--5--><flow id="carflow165" type="car" begin="36000" end="39600" vehsPerHour="223" from="484462990"  to="669301561" departLane="best" />