<routes>
<vType id="car" type="passenger" length="5" accel="3.5" decel="2.2" sigma="1.0"/>

<flow id="carflow01" type="car" beg="0" end="9999999" vehsPerHour="30" from="583307812#2" to="325116753#0" departLane="best" /> 
<flow id="carflow02" type="car" beg="0" end="9999999" vehsPerHour="50" from="583307812#2" to="-667354421" departLane="best" />
<flow id="carflow03" type="car" beg="0" end="9999999" vehsPerHour="20" from="583307812#2" to="-468604871#2" departLane="best" />
<flow id="carflow04" type="car" beg="0" end="9999999" vehsPerHour="50" from="583307812#2" to="667354420" departLane="best" />
<flow id="carflow05" type="car" beg="0" end="9999999" vehsPerHour="500" from="667354421" via="706712805" to="-583307812#2" departLane="best" />
<flow id="carflow06" type="car" beg="0" end="9999999" vehsPerHour="500" from="667354421" to="667354420" departLane="best" />
<flow id="carflow07" type="car" beg="0" end="9999999" vehsPerHour="500" from="-621392371#0" to="-667354421" departLane="best" />
<flow id="carflow08" type="car" beg="0" end="9999999" vehsPerHour="100" from="667354421" to="669301561" departLane="best" />
<flow id="carflow09" type="car" beg="0" end="9999999" vehsPerHour="30" from="706712811" via="706712805" to="667354420" departLane="best" />
<flow id="carflow10" type="car" beg="0" end="9999999" vehsPerHour="50" from="706712811" to="-583307812#2" departLane="best" />
<flow id="carflow11" type="car" beg="0" end="9999999" vehsPerHour="100" from="-621392371#0" to="-468604871#2" departLane="best" />
<flow id="carflow12" type="car" beg="0" end="9999999" vehsPerHour="50" from="468604871#2" to="325116753#0" departLane="best" />
<flow id="carflow13" type="car" beg="0" end="9999999" vehsPerHour="50" from="468604871#2" to="-667354421" departLane="best" />

</routes>
