<routes>
<vType id="car" type="passenger" length="5" accel="3.5" decel="2.2" sigma="1.0"/>

<!--2020-04-24 --><!--02시--><!--1--><flow id="carflow769" type="car" begin="0" end="3600" vehsPerHour="311" from="484462990"  to="667354420" via="706712805" departLane="best" />
<!--2--><flow id="carflow770" type="car" begin="0" end="3600" vehsPerHour="3" from=" 583307812#2" to="667354420" departLane="best" />
<!--3--><flow id="carflow771" type="car" begin="0" end="3600" vehsPerHour="34" from="706712811" to="667354420" via = "706712805"  departLane="best" />
<!--4--><flow id="carflow772" type="car" begin="0" end="3600" vehsPerHour="25" from="706712811" to="667354420" via = "741638791#0" departLane="best" />
<!--5--><flow id="carflow773" type="car" begin="0" end="3600" vehsPerHour="34" from="484462990"  to="669301561" departLane="best" />
<!--6--><flow id="carflow774" type="car" begin="0" end="3600" vehsPerHour="12" from="583307812#2" to="669301561" departLane="best" />
<!--7--><flow id="carflow775" type="car" begin="0" end="3600" vehsPerHour="34" from="-621392371#0" to="669301561" via = "-706712805" departLane="best" />
<!--8--><flow id="carflow776" type="car" begin="0" end="3600" vehsPerHour="11" from="-621392371#0" to="669301561" departLane="best" />
<!--9--><flow id="carflow777" type="car" begin="0" end="3600" vehsPerHour="7" from="-621392371#0" to="-583307812#2" departLane="best" />
<!--10--><flow id="carflow778" type="car" begin="0" end="3600" vehsPerHour="4" from="706712811" to="-583307812#2" departLane="best" />
<!--11--><flow id="carflow779" type="car" begin="0" end="3600" vehsPerHour="7" from="484462990"  to="-583307812#2" via = "706712805" departLane="best" />
<!--12--><flow id="carflow780" type="car" begin="0" end="3600" vehsPerHour="4" from="484462990"  to="-583307812#2" via = "741638791#0" departLane="best" />
<!--13--><flow id="carflow781" type="car" begin="0" end="3600" vehsPerHour="274" from="-621392371#0" to="-667354421" departLane="best" />
<!--14--><flow id="carflow782" type="car" begin="0" end="3600" vehsPerHour="7" from="706712811" to="-667354421" departLane="best" />
<!--15--><flow id="carflow783" type="car" begin="0" end="3600" vehsPerHour="1" from="583307812#2" to="-667354421" via = "706712805" departLane="best" />
<!--16--><flow id="carflow784" type="car" begin="0" end="3600" vehsPerHour="7" from="583307812#2" to="-667354421" via = "741638791#0" departLane="best" />

<!--2020-04-24 --><!--03시--><!--1--><flow id="carflow785" type="car" begin="3600" end="7200" vehsPerHour="218" from="484462990"  to="667354420" via="706712805" departLane="best" />
<!--2--><flow id="carflow786" type="car" begin="3600" end="7200" vehsPerHour="2" from=" 583307812#2" to="667354420" departLane="best" />
<!--3--><flow id="carflow787" type="car" begin="3600" end="7200" vehsPerHour="24" from="706712811" to="667354420" via = "706712805"  departLane="best" />
<!--4--><flow id="carflow788" type="car" begin="3600" end="7200" vehsPerHour="14" from="706712811" to="667354420" via = "741638791#0" departLane="best" />
<!--5--><flow id="carflow789" type="car" begin="3600" end="7200" vehsPerHour="17" from="484462990"  to="669301561" departLane="best" />
<!--6--><flow id="carflow790" type="car" begin="3600" end="7200" vehsPerHour="1" from="583307812#2" to="669301561" departLane="best" />
<!--7--><flow id="carflow791" type="car" begin="3600" end="7200" vehsPerHour="17" from="-621392371#0" to="669301561" via = "-706712805" departLane="best" />
<!--8--><flow id="carflow792" type="car" begin="3600" end="7200" vehsPerHour="10" from="-621392371#0" to="669301561" departLane="best" />
<!--9--><flow id="carflow793" type="car" begin="3600" end="7200" vehsPerHour="3" from="-621392371#0" to="-583307812#2" departLane="best" />
<!--10--><flow id="carflow794" type="car" begin="3600" end="7200" vehsPerHour="2" from="706712811" to="-583307812#2" departLane="best" />
<!--11--><flow id="carflow795" type="car" begin="3600" end="7200" vehsPerHour="4" from="484462990"  to="-583307812#2" via = "706712805" departLane="best" />
<!--12--><flow id="carflow796" type="car" begin="3600" end="7200" vehsPerHour="2" from="484462990"  to="-583307812#2" via = "741638791#0" departLane="best" />
<!--13--><flow id="carflow797" type="car" begin="3600" end="7200" vehsPerHour="206" from="-621392371#0" to="-667354421" departLane="best" />
<!--14--><flow id="carflow798" type="car" begin="3600" end="7200" vehsPerHour="6" from="706712811" to="-667354421" departLane="best" />
<!--15--><flow id="carflow799" type="car" begin="3600" end="7200" vehsPerHour="1" from="583307812#2" to="-667354421" via = "706712805" departLane="best" />
<!--16--><flow id="carflow800" type="car" begin="3600" end="7200" vehsPerHour="7" from="583307812#2" to="-667354421" via = "741638791#0" departLane="best" />

<!--2020-04-24 --><!--04시--><!--1--><flow id="carflow801" type="car" begin="7200" end="10800" vehsPerHour="225" from="484462990"  to="667354420" via="706712805" departLane="best" />
<!--2--><flow id="carflow802" type="car" begin="7200" end="10800" vehsPerHour="2" from=" 583307812#2" to="667354420" departLane="best" />
<!--3--><flow id="carflow803" type="car" begin="7200" end="10800" vehsPerHour="25" from="706712811" to="667354420" via = "706712805"  departLane="best" />
<!--4--><flow id="carflow804" type="car" begin="7200" end="10800" vehsPerHour="22" from="706712811" to="667354420" via = "741638791#0" departLane="best" />
<!--5--><flow id="carflow805" type="car" begin="7200" end="10800" vehsPerHour="13" from="484462990"  to="669301561" departLane="best" />
<!--6--><flow id="carflow806" type="car" begin="7200" end="10800" vehsPerHour="1" from="583307812#2" to="669301561" departLane="best" />
<!--7--><flow id="carflow807" type="car" begin="7200" end="10800" vehsPerHour="13" from="-621392371#0" to="669301561" via = "-706712805" departLane="best" />
<!--8--><flow id="carflow808" type="car" begin="7200" end="10800" vehsPerHour="7" from="-621392371#0" to="669301561" departLane="best" />
<!--9--><flow id="carflow809" type="car" begin="7200" end="10800" vehsPerHour="4" from="-621392371#0" to="-583307812#2" departLane="best" />
<!--10--><flow id="carflow810" type="car" begin="7200" end="10800" vehsPerHour="2" from="706712811" to="-583307812#2" departLane="best" />
<!--11--><flow id="carflow811" type="car" begin="7200" end="10800" vehsPerHour="4" from="484462990"  to="-583307812#2" via = "706712805" departLane="best" />
<!--12--><flow id="carflow812" type="car" begin="7200" end="10800" vehsPerHour="2" from="484462990"  to="-583307812#2" via = "741638791#0" departLane="best" />
<!--13--><flow id="carflow813" type="car" begin="7200" end="10800" vehsPerHour="253" from="-621392371#0" to="-667354421" departLane="best" />
<!--14--><flow id="carflow814" type="car" begin="7200" end="10800" vehsPerHour="4" from="706712811" to="-667354421" departLane="best" />
<!--15--><flow id="carflow815" type="car" begin="7200" end="10800" vehsPerHour="1" from="583307812#2" to="-667354421" via = "706712805" departLane="best" />
<!--16--><flow id="carflow816" type="car" begin="7200" end="10800" vehsPerHour="4" from="583307812#2" to="-667354421" via = "741638791#0" departLane="best" />

<!--2020-04-24 --><!--08시--><!--1--><flow id="carflow817" type="car" begin="10800" end="14400" vehsPerHour="1302" from="484462990"  to="667354420" via="706712805" departLane="best" />
<!--2--><flow id="carflow818" type="car" begin="10800" end="14400" vehsPerHour="32" from=" 583307812#2" to="667354420" departLane="best" />
<!--3--><flow id="carflow819" type="car" begin="10800" end="14400" vehsPerHour="278" from="706712811" to="667354420" via = "706712805"  departLane="best" />
<!--4--><flow id="carflow820" type="car" begin="10800" end="14400" vehsPerHour="49" from="706712811" to="667354420" via = "741638791#0" departLane="best" />
<!--5--><flow id="carflow821" type="car" begin="10800" end="14400" vehsPerHour="343" from="484462990"  to="669301561" departLane="best" />
<!--6--><flow id="carflow822" type="car" begin="10800" end="14400" vehsPerHour="21" from="583307812#2" to="669301561" departLane="best" />
<!--7--><flow id="carflow823" type="car" begin="10800" end="14400" vehsPerHour="343" from="-621392371#0" to="669301561" via = "-706712805" departLane="best" />
<!--8--><flow id="carflow824" type="car" begin="10800" end="14400" vehsPerHour="108" from="-621392371#0" to="669301561" departLane="best" />
<!--9--><flow id="carflow825" type="car" begin="10800" end="14400" vehsPerHour="228" from="-621392371#0" to="-583307812#2" departLane="best" />
<!--10--><flow id="carflow826" type="car" begin="10800" end="14400" vehsPerHour="47" from="706712811" to="-583307812#2" departLane="best" />
<!--11--><flow id="carflow827" type="car" begin="10800" end="14400" vehsPerHour="133" from="484462990"  to="-583307812#2" via = "706712805" departLane="best" />
<!--12--><flow id="carflow828" type="car" begin="10800" end="14400" vehsPerHour="47" from="484462990"  to="-583307812#2" via = "741638791#0" departLane="best" />
<!--13--><flow id="carflow829" type="car" begin="10800" end="14400" vehsPerHour="839" from="-621392371#0" to="-667354421" departLane="best" />
<!--13-2--><flow id="carflow829_2" type="car" begin="10800" end="14400" vehsPerHour="103" from="-621392371#0" to="-468604871#1" departLane="best" />
<!--13-3--><flow id="carflow829_3" type="car" begin="10800" end="14400" vehsPerHour="50" from="468604871#1" to="-583307812#2" departLane="best" />
<!--13-4--><flow id="carflow829_4" type="car" begin="10800" end="14400" vehsPerHour="50" from="468604871#1" to="669301561" departLane="best" />
<!--13-5--><flow id="carflow829_5" type="car" begin="10800" end="14400" vehsPerHour="50" from="-325116753#0" to="667354420" departLane="best" />
<!--13-6--><flow id="carflow829_6" type="car" begin="10800" end="14400" vehsPerHour="30" from="-325116753#0" to="-583307812#2" departLane="best" />
<!--14--><flow id="carflow830" type="car" begin="10800" end="14400" vehsPerHour="77" from="706712811" to="-667354421" departLane="best" />
<!--15--><flow id="carflow831" type="car" begin="10800" end="14400" vehsPerHour="21" from="583307812#2" to="-667354421" via = "706712805" departLane="best" />
<!--16--><flow id="carflow832" type="car" begin="10800" end="14400" vehsPerHour="170" from="583307812#2" to="-667354421" via = "741638791#0" departLane="best" />

<!--2020-04-24 --><!--09시--><!--1--><flow id="carflow833" type="car" begin="14400" end="18000" vehsPerHour="1109" from="484462990"  to="667354420" via="706712805" departLane="best" />
<!--2--><flow id="carflow834" type="car" begin="14400" end="18000" vehsPerHour="23" from=" 583307812#2" to="667354420" departLane="best" />
<!--3--><flow id="carflow835" type="car" begin="14400" end="18000" vehsPerHour="234" from="706712811" to="667354420" via = "706712805"  departLane="best" />
<!--4--><flow id="carflow836" type="car" begin="14400" end="18000" vehsPerHour="35" from="706712811" to="667354420" via = "741638791#0" departLane="best" />
<!--5--><flow id="carflow837" type="car" begin="14400" end="18000" vehsPerHour="296" from="484462990"  to="669301561" departLane="best" />
<!--6--><flow id="carflow838" type="car" begin="14400" end="18000" vehsPerHour="13" from="583307812#2" to="669301561" departLane="best" />
<!--7--><flow id="carflow839" type="car" begin="14400" end="18000" vehsPerHour="296" from="-621392371#0" to="669301561" via = "-706712805" departLane="best" />
<!--8--><flow id="carflow840" type="car" begin="14400" end="18000" vehsPerHour="106" from="-621392371#0" to="669301561" departLane="best" />
<!--9--><flow id="carflow841" type="car" begin="14400" end="18000" vehsPerHour="225" from="-621392371#0" to="-583307812#2" departLane="best" />
<!--10--><flow id="carflow842" type="car" begin="14400" end="18000" vehsPerHour="36" from="706712811" to="-583307812#2" departLane="best" />
<!--11--><flow id="carflow843" type="car" begin="14400" end="18000" vehsPerHour="140" from="484462990"  to="-583307812#2" via = "706712805" departLane="best" />
<!--12--><flow id="carflow844" type="car" begin="14400" end="18000" vehsPerHour="36" from="484462990"  to="-583307812#2" via = "741638791#0" departLane="best" />
<!--13--><flow id="carflow845" type="car" begin="14400" end="18000" vehsPerHour="722" from="-621392371#0" to="-667354421" departLane="best" />
<!--13-2--><flow id="carflow845_2" type="car" begin="14400" end="18000" vehsPerHour="117" from="-621392371#0" to="-468604871#1" departLane="best" />
<!--13-3--><flow id="carflow845_3" type="car" begin="14400" end="18000" vehsPerHour="50" from="468604871#1" to="-583307812#2" departLane="best" />
<!--13-4--><flow id="carflow845_4" type="car" begin="14400" end="18000" vehsPerHour="50" from="468604871#1" to="669301561" departLane="best" />
<!--13-5--><flow id="carflow845_5" type="car" begin="14400" end="18000" vehsPerHour="50" from="-325116753#0" to="667354420" departLane="best" />
<!--13-6--><flow id="carflow845_6" type="car" begin="14400" end="18000" vehsPerHour="30" from="-325116753#0" to="-583307812#2" departLane="best" />
<!--14--><flow id="carflow846" type="car" begin="14400" end="18000" vehsPerHour="71" from="706712811" to="-667354421" departLane="best" />
<!--15--><flow id="carflow847" type="car" begin="14400" end="18000" vehsPerHour="26" from="583307812#2" to="-667354421" via = "706712805" departLane="best" />
<!--16--><flow id="carflow848" type="car" begin="14400" end="18000" vehsPerHour="95" from="583307812#2" to="-667354421" via = "741638791#0" departLane="best" />

<!--2020-04-24 --><!--10시--><!--1--><flow id="carflow849" type="car" begin="18000" end="21600" vehsPerHour="870" from="484462990"  to="667354420" via="706712805" departLane="best" />
<!--2--><flow id="carflow850" type="car" begin="18000" end="21600" vehsPerHour="21" from=" 583307812#2" to="667354420" departLane="best" />
<!--3--><flow id="carflow851" type="car" begin="18000" end="21600" vehsPerHour="196" from="706712811" to="667354420" via = "706712805"  departLane="best" />
<!--4--><flow id="carflow852" type="car" begin="18000" end="21600" vehsPerHour="37" from="706712811" to="667354420" via = "741638791#0" departLane="best" />
<!--5--><flow id="carflow853" type="car" begin="18000" end="21600" vehsPerHour="172" from="484462990"  to="669301561" departLane="best" />
<!--6--><flow id="carflow854" type="car" begin="18000" end="21600" vehsPerHour="11" from="583307812#2" to="669301561" departLane="best" />
<!--7--><flow id="carflow855" type="car" begin="18000" end="21600" vehsPerHour="272" from="-621392371#0" to="669301561" via = "-706712805" departLane="best" />
<!--8--><flow id="carflow856" type="car" begin="18000" end="21600" vehsPerHour="102" from="-621392371#0" to="669301561" departLane="best" />
<!--9--><flow id="carflow857" type="car" begin="18000" end="21600" vehsPerHour="220" from="-621392371#0" to="-583307812#2" departLane="best" />
<!--10--><flow id="carflow858" type="car" begin="18000" end="21600" vehsPerHour="28" from="706712811" to="-583307812#2" departLane="best" />
<!--11--><flow id="carflow859" type="car" begin="18000" end="21600" vehsPerHour="107" from="484462990"  to="-583307812#2" via = "706712805" departLane="best" />
<!--12--><flow id="carflow860" type="car" begin="18000" end="21600" vehsPerHour="28" from="484462990"  to="-583307812#2" via = "741638791#0" departLane="best" />
<!--13--><flow id="carflow861" type="car" begin="18000" end="21600" vehsPerHour="610" from="-621392371#0" to="-667354421" departLane="best" />
<!--13-2--><flow id="carflow861_2" type="car" begin="18000" end="21600" vehsPerHour="127" from="-621392371#0" to="-468604871#1" departLane="best" />
<!--13-3--><flow id="carflow861_3" type="car" begin="18000" end="21600" vehsPerHour="50" from="468604871#1" to="-583307812#2" departLane="best" />
<!--13-4--><flow id="carflow861_4" type="car" begin="18000" end="21600" vehsPerHour="50" from="468604871#1" to="669301561" departLane="best" />
<!--13-5--><flow id="carflow861_5" type="car" begin="18000" end="21600" vehsPerHour="50" from="-325116753#0" to="667354420" departLane="best" />
<!--13-6--><flow id="carflow861_6" type="car" begin="18000" end="21600" vehsPerHour="30" from="-325116753#0" to="-583307812#2" departLane="best" />
<!--14--><flow id="carflow862" type="car" begin="18000" end="21600" vehsPerHour="65" from="706712811" to="-667354421" departLane="best" />
<!--15--><flow id="carflow863" type="car" begin="18000" end="21600" vehsPerHour="11" from="583307812#2" to="-667354421" via = "706712805" departLane="best" />
<!--16--><flow id="carflow864" type="car" begin="18000" end="21600" vehsPerHour="94" from="583307812#2" to="-667354421" via = "741638791#0" departLane="best" />

<!--2020-04-24 --><!--13시--><!--1--><flow id="carflow865" type="car" begin="21600" end="25200" vehsPerHour="936" from="484462990"  to="667354420" via="706712805" departLane="best" />
<!--2--><flow id="carflow866" type="car" begin="21600" end="25200" vehsPerHour="23" from=" 583307812#2" to="667354420" departLane="best" />
<!--3--><flow id="carflow867" type="car" begin="21600" end="25200" vehsPerHour="204" from="706712811" to="667354420" via = "706712805"  departLane="best" />
<!--4--><flow id="carflow868" type="car" begin="21600" end="25200" vehsPerHour="49" from="706712811" to="667354420" via = "741638791#0" departLane="best" />
<!--5--><flow id="carflow869" type="car" begin="21600" end="25200" vehsPerHour="205" from="484462990"  to="669301561" departLane="best" />
<!--6--><flow id="carflow870" type="car" begin="21600" end="25200" vehsPerHour="14" from="583307812#2" to="669301561" departLane="best" />
<!--7--><flow id="carflow871" type="car" begin="21600" end="25200" vehsPerHour="305" from="-621392371#0" to="669301561" via = "-706712805" departLane="best" />
<!--8--><flow id="carflow872" type="car" begin="21600" end="25200" vehsPerHour="101" from="-621392371#0" to="669301561" departLane="best" />
<!--9--><flow id="carflow873" type="car" begin="21600" end="25200" vehsPerHour="221" from="-621392371#0" to="-583307812#2" departLane="best" />
<!--10--><flow id="carflow874" type="car" begin="21600" end="25200" vehsPerHour="33" from="706712811" to="-583307812#2" departLane="best" />
<!--11--><flow id="carflow875" type="car" begin="21600" end="25200" vehsPerHour="97" from="484462990"  to="-583307812#2" via = "706712805" departLane="best" />
<!--12--><flow id="carflow876" type="car" begin="21600" end="25200" vehsPerHour="33" from="484462990"  to="-583307812#2" via = "741638791#0" departLane="best" />
<!--13--><flow id="carflow877" type="car" begin="21600" end="25200" vehsPerHour="656" from="-621392371#0" to="-667354421" departLane="best" />
<!--13-2--><flow id="carflow877_2" type="car" begin="21600" end="25200" vehsPerHour="127" from="-621392371#0" to="-468604871#1" departLane="best" />
<!--13-3--><flow id="carflow877_3" type="car" begin="21600" end="25200" vehsPerHour="50" from="468604871#1" to="-583307812#2" departLane="best" />
<!--13-4--><flow id="carflow877_4" type="car" begin="21600" end="25200" vehsPerHour="50" from="468604871#1" to="669301561" departLane="best" />
<!--13-5--><flow id="carflow877_5" type="car" begin="21600" end="25200" vehsPerHour="50" from="-325116753#0" to="667354420" departLane="best" />
<!--13-6--><flow id="carflow877_6" type="car" begin="21600" end="25200" vehsPerHour="30" from="-325116753#0" to="-583307812#2" departLane="best" />
<!--14--><flow id="carflow878" type="car" begin="21600" end="25200" vehsPerHour="67" from="706712811" to="-667354421" departLane="best" />
<!--15--><flow id="carflow879" type="car" begin="21600" end="25200" vehsPerHour="14" from="583307812#2" to="-667354421" via = "706712805" departLane="best" />
<!--16--><flow id="carflow880" type="car" begin="21600" end="25200" vehsPerHour="118" from="583307812#2" to="-667354421" via = "741638791#0" departLane="best" />

<!--2020-04-24 --><!--14시--><!--1--><flow id="carflow881" type="car" begin="25200" end="28800" vehsPerHour="935" from="484462990"  to="667354420" via="706712805" departLane="best" />
<!--2--><flow id="carflow882" type="car" begin="25200" end="28800" vehsPerHour="26" from=" 583307812#2" to="667354420" departLane="best" />
<!--3--><flow id="carflow883" type="car" begin="25200" end="28800" vehsPerHour="199" from="706712811" to="667354420" via = "706712805"  departLane="best" />
<!--4--><flow id="carflow884" type="car" begin="25200" end="28800" vehsPerHour="41" from="706712811" to="667354420" via = "741638791#0" departLane="best" />
<!--5--><flow id="carflow885" type="car" begin="25200" end="28800" vehsPerHour="215" from="484462990"  to="669301561" departLane="best" />
<!--6--><flow id="carflow886" type="car" begin="25200" end="28800" vehsPerHour="16" from="583307812#2" to="669301561" departLane="best" />
<!--7--><flow id="carflow887" type="car" begin="25200" end="28800" vehsPerHour="315" from="-621392371#0" to="669301561" via = "-706712805" departLane="best" />
<!--8--><flow id="carflow888" type="car" begin="25200" end="28800" vehsPerHour="103" from="-621392371#0" to="669301561" departLane="best" />
<!--9--><flow id="carflow889" type="car" begin="25200" end="28800" vehsPerHour="221" from="-621392371#0" to="-583307812#2" departLane="best" />
<!--10--><flow id="carflow890" type="car" begin="25200" end="28800" vehsPerHour="34" from="706712811" to="-583307812#2" departLane="best" />
<!--11--><flow id="carflow891" type="car" begin="25200" end="28800" vehsPerHour="97" from="484462990"  to="-583307812#2" via = "706712805" departLane="best" />
<!--12--><flow id="carflow892" type="car" begin="25200" end="28800" vehsPerHour="34" from="484462990"  to="-583307812#2" via = "741638791#0" departLane="best" />
<!--13--><flow id="carflow893" type="car" begin="25200" end="28800" vehsPerHour="845" from="-621392371#0" to="-667354421" departLane="best" />
<!--13-2--><flow id="carflow893_2" type="car" begin="25200" end="28800" vehsPerHour="43" from="-621392371#0" to="-468604871#1" departLane="best" />
<!--13-3--><flow id="carflow893_3" type="car" begin="25200" end="28800" vehsPerHour="50" from="468604871#1" to="-583307812#2" departLane="best" />
<!--13-4--><flow id="carflow893_4" type="car" begin="25200" end="28800" vehsPerHour="50" from="468604871#1" to="669301561" departLane="best" />
<!--13-5--><flow id="carflow893_5" type="car" begin="25200" end="28800" vehsPerHour="50" from="-325116753#0" to="667354420" departLane="best" />
<!--13-6--><flow id="carflow893_6" type="car" begin="25200" end="28800" vehsPerHour="30" from="-325116753#0" to="-583307812#2" departLane="best" />
<!--14--><flow id="carflow894" type="car" begin="25200" end="28800" vehsPerHour="68" from="706712811" to="-667354421" departLane="best" />
<!--15--><flow id="carflow895" type="car" begin="25200" end="28800" vehsPerHour="16" from="583307812#2" to="-667354421" via = "706712805" departLane="best" />
<!--16--><flow id="carflow896" type="car" begin="25200" end="28800" vehsPerHour="131" from="583307812#2" to="-667354421" via = "741638791#0" departLane="best" />

<!--2020-04-24 --><!--15시--><!--1--><flow id="carflow897" type="car" begin="28800" end="32400" vehsPerHour="847" from="484462990"  to="667354420" via="706712805" departLane="best" />
<!--2--><flow id="carflow898" type="car" begin="28800" end="32400" vehsPerHour="30" from=" 583307812#2" to="667354420" departLane="best" />
<!--3--><flow id="carflow899" type="car" begin="28800" end="32400" vehsPerHour="160" from="706712811" to="667354420" via = "706712805"  departLane="best" />
<!--4--><flow id="carflow900" type="car" begin="28800" end="32400" vehsPerHour="27" from="706712811" to="667354420" via = "741638791#0" departLane="best" />
<!--5--><flow id="carflow901" type="car" begin="28800" end="32400" vehsPerHour="245" from="484462990"  to="669301561" departLane="best" />
<!--6--><flow id="carflow902" type="car" begin="28800" end="32400" vehsPerHour="16" from="583307812#2" to="669301561" departLane="best" />
<!--7--><flow id="carflow903" type="car" begin="28800" end="32400" vehsPerHour="345" from="-621392371#0" to="669301561" via = "-706712805" departLane="best" />
<!--8--><flow id="carflow904" type="car" begin="28800" end="32400" vehsPerHour="131" from="-621392371#0" to="669301561" departLane="best" />
<!--9--><flow id="carflow905" type="car" begin="28800" end="32400" vehsPerHour="228" from="-621392371#0" to="-583307812#2" departLane="best" />
<!--10--><flow id="carflow906" type="car" begin="28800" end="32400" vehsPerHour="38" from="706712811" to="-583307812#2" departLane="best" />
<!--11--><flow id="carflow907" type="car" begin="28800" end="32400" vehsPerHour="117" from="484462990"  to="-583307812#2" via = "706712805" departLane="best" />
<!--12--><flow id="carflow908" type="car" begin="28800" end="32400" vehsPerHour="38" from="484462990"  to="-583307812#2" via = "741638791#0" departLane="best" />
<!--13--><flow id="carflow909" type="car" begin="28800" end="32400" vehsPerHour="889" from="-621392371#0" to="-667354421" departLane="best" />
<!--13-2--><flow id="carflow909_2" type="car" begin="28800" end="32400" vehsPerHour="57" from="-621392371#0" to="-468604871#1" departLane="best" />
<!--13-3--><flow id="carflow909_3" type="car" begin="28800" end="32400" vehsPerHour="50" from="468604871#1" to="-583307812#2" departLane="best" />
<!--13-4--><flow id="carflow909_4" type="car" begin="28800" end="32400" vehsPerHour="50" from="468604871#1" to="669301561" departLane="best" />
<!--13-5--><flow id="carflow909_5" type="car" begin="28800" end="32400" vehsPerHour="50" from="-325116753#0" to="667354420" departLane="best" />
<!--13-6--><flow id="carflow909_6" type="car" begin="28800" end="32400" vehsPerHour="30" from="-325116753#0" to="-583307812#2" departLane="best" />
<!--14--><flow id="carflow910" type="car" begin="28800" end="32400" vehsPerHour="84" from="706712811" to="-667354421" departLane="best" />
<!--15--><flow id="carflow911" type="car" begin="28800" end="32400" vehsPerHour="16" from="583307812#2" to="-667354421" via = "706712805" departLane="best" />
<!--16--><flow id="carflow912" type="car" begin="28800" end="32400" vehsPerHour="132" from="583307812#2" to="-667354421" via = "741638791#0" departLane="best" />

<!--2020-04-24 --><!--17시--><!--1--><flow id="carflow913" type="car" begin="32400" end="36000" vehsPerHour="1081" from="484462990"  to="667354420" via="706712805" departLane="best" />
<!--2--><flow id="carflow914" type="car" begin="32400" end="36000" vehsPerHour="56" from=" 583307812#2" to="667354420" departLane="best" />
<!--3--><flow id="carflow915" type="car" begin="32400" end="36000" vehsPerHour="223" from="706712811" to="667354420" via = "706712805"  departLane="best" />
<!--4--><flow id="carflow916" type="car" begin="32400" end="36000" vehsPerHour="39" from="706712811" to="667354420" via = "741638791#0" departLane="best" />
<!--5--><flow id="carflow917" type="car" begin="32400" end="36000" vehsPerHour="296" from="484462990"  to="669301561" departLane="best" />
<!--6--><flow id="carflow918" type="car" begin="32400" end="36000" vehsPerHour="24" from="583307812#2" to="669301561" departLane="best" />
<!--7--><flow id="carflow919" type="car" begin="32400" end="36000" vehsPerHour="396" from="-621392371#0" to="669301561" via = "-706712805" departLane="best" />
<!--8--><flow id="carflow920" type="car" begin="32400" end="36000" vehsPerHour="109" from="-621392371#0" to="669301561" departLane="best" />
<!--9--><flow id="carflow921" type="car" begin="32400" end="36000" vehsPerHour="340" from="-621392371#0" to="-583307812#2" departLane="best" />
<!--10--><flow id="carflow922" type="car" begin="32400" end="36000" vehsPerHour="44" from="706712811" to="-583307812#2" departLane="best" />
<!--11--><flow id="carflow923" type="car" begin="32400" end="36000" vehsPerHour="107" from="484462990"  to="-583307812#2" via = "706712805" departLane="best" />
<!--12--><flow id="carflow924" type="car" begin="32400" end="36000" vehsPerHour="44" from="484462990"  to="-583307812#2" via = "741638791#0" departLane="best" />
<!--13--><flow id="carflow925" type="car" begin="32400" end="36000" vehsPerHour="982" from="-621392371#0" to="-667354421" departLane="best" />
<!--13-2--><flow id="carflow925_2" type="car" begin="32400" end="36000" vehsPerHour="97" from="-621392371#0" to="-468604871#1" departLane="best" />
<!--13-3--><flow id="carflow925_3" type="car" begin="32400" end="36000" vehsPerHour="50" from="468604871#1" to="-583307812#2" departLane="best" />
<!--13-4--><flow id="carflow925_4" type="car" begin="32400" end="36000" vehsPerHour="50" from="468604871#1" to="669301561" departLane="best" />
<!--13-5--><flow id="carflow925_5" type="car" begin="32400" end="36000" vehsPerHour="50" from="-325116753#0" to="667354420" departLane="best" />
<!--13-6--><flow id="carflow925_6" type="car" begin="32400" end="36000" vehsPerHour="30" from="-325116753#0" to="-583307812#2" departLane="best" />
<!--14--><flow id="carflow926" type="car" begin="32400" end="36000" vehsPerHour="116" from="706712811" to="-667354421" departLane="best" />
<!--15--><flow id="carflow927" type="car" begin="32400" end="36000" vehsPerHour="24" from="583307812#2" to="-667354421" via = "706712805" departLane="best" />
<!--16--><flow id="carflow928" type="car" begin="32400" end="36000" vehsPerHour="195" from="583307812#2" to="-667354421" via = "741638791#0" departLane="best" />

<!--2020-04-24 --><!--18시--><!--1--><flow id="carflow929" type="car" begin="36000" end="39600" vehsPerHour="1203" from="484462990"  to="667354420" via="706712805" departLane="best" />
<!--2--><flow id="carflow930" type="car" begin="36000" end="39600" vehsPerHour="71" from=" 583307812#2" to="667354420" departLane="best" />
<!--3--><flow id="carflow931" type="car" begin="36000" end="39600" vehsPerHour="255" from="706712811" to="667354420" via = "706712805"  departLane="best" />
<!--4--><flow id="carflow932" type="car" begin="36000" end="39600" vehsPerHour="24" from="706712811" to="667354420" via = "741638791#0" departLane="best" />