<?xml version="1.0" encoding="UTF-8"?>

<!-- generated on 05/20/20 16:16:46 by Eclipse SUMO netedit Version 1.6.0
<configuration xmlns:xsi="http://www.w3.org/2001/XMLSchema-instance" xsi:noNamespaceSchemaLocation="http://sumo.dlr.de/xsd/netconvertConfiguration.xsd">

    <input>
        <sumo-net-file value="C:\Users\uos\Desktop\suwon(2)\osm.net.xml"/>
    </input>

    <output>
        <output-file value="C:\Users\uos\Desktop\suwon(2)\osm.net.xml"/>
        <output.street-names value="true"/>
    </output>

    <processing>
        <geometry.min-radius.fix.railways value="false"/>
        <geometry.max-grade.fix value="false"/>
        <offset.disable-normalization value="true"/>
        <lefthand value="false"/>
    </processing>

    <junctions>
        <no-turnarounds value="true"/>
        <junctions.corner-detail value="5"/>
        <junctions.limit-turn-speed value="5.5"/>
        <rectangular-lane-cut value="false"/>
    </junctions>

    <pedestrian>
        <walkingareas value="false"/>
    </pedestrian>

    <report>
        <aggregate-warnings value="5"/>
    </report>

</configuration>
-->

<net version="1.6" junctionCornerDetail="5" limitTurnSpeed="5.50" xmlns:xsi="http://www.w3.org/2001/XMLSchema-instance" xsi:noNamespaceSchemaLocation="http://sumo.dlr.de/xsd/net_file.xsd">

    <location netOffset="-325982.55,-4128061.34" convBoundary="0.00,0.00,2191.26,18515.39" origBoundary="127.036703,37.282914,127.111237,37.450026" projParameter="+proj=utm +zone=52 +ellps=WGS84 +datum=WGS84 +units=m +no_defs"/>

    <type id="highway.bridleway" priority="1" numLanes="1" speed="2.78" allow="pedestrian" oneway="1" width="2.00"/>
    <type id="highway.bus_guideway" priority="1" numLanes="1" speed="27.78" allow="bus" oneway="1"/>
    <type id="highway.cycleway" priority="1" numLanes="1" speed="8.33" allow="bicycle" oneway="0" width="1.00"/>
    <type id="highway.footway" priority="1" numLanes="1" speed="2.78" allow="pedestrian" oneway="1" width="2.00"/>
    <type id="highway.ford" priority="1" numLanes="1" speed="2.78" allow="army" oneway="0"/>
    <type id="highway.living_street" priority="2" numLanes="1" speed="2.78" disallow="tram rail_urban rail rail_electric rail_fast ship" oneway="0"/>
    <type id="highway.motorway" priority="14" numLanes="2" speed="39.44" allow="private emergency authority army vip passenger hov taxi bus coach delivery truck trailer motorcycle evehicle custom1 custom2" oneway="1"/>
    <type id="highway.motorway_link" priority="9" numLanes="1" speed="22.22" allow="private emergency authority army vip passenger hov taxi bus coach delivery truck trailer motorcycle evehicle custom1 custom2" oneway="1"/>
    <type id="highway.path" priority="1" numLanes="1" speed="2.78" allow="pedestrian bicycle" oneway="1" width="2.00"/>
    <type id="highway.pedestrian" priority="1" numLanes="1" speed="2.78" allow="pedestrian" oneway="1" width="2.00"/>
    <type id="highway.primary" priority="12" numLanes="2" speed="27.78" disallow="tram rail_urban rail rail_electric rail_fast ship" oneway="0"/>
    <type id="highway.primary_link" priority="7" numLanes="1" speed="22.22" disallow="tram rail_urban rail rail_electric rail_fast ship" oneway="0"/>
    <type id="highway.raceway" priority="15" numLanes="2" speed="83.33" allow="vip" oneway="0"/>
    <type id="highway.residential" priority="3" numLanes="1" speed="13.89" disallow="tram rail_urban rail rail_electric rail_fast ship" oneway="0"/>
    <type id="highway.secondary" priority="11" numLanes="2" speed="27.78" disallow="tram rail_urban rail rail_electric rail_fast ship" oneway="0"/>
    <type id="highway.secondary_link" priority="6" numLanes="1" speed="22.22" disallow="tram rail_urban rail rail_electric rail_fast ship" oneway="0"/>
    <type id="highway.service" priority="1" numLanes="1" speed="5.56" allow="pedestrian delivery bicycle" oneway="0"/>
    <type id="highway.stairs" priority="1" numLanes="1" speed="1.39" allow="pedestrian" oneway="1" width="2.00"/>
    <type id="highway.step" priority="1" numLanes="1" speed="1.39" allow="pedestrian" oneway="1" width="2.00"/>
    <type id="highway.steps" priority="1" numLanes="1" speed="1.39" allow="pedestrian" oneway="1" width="2.00"/>
    <type id="highway.tertiary" priority="10" numLanes="1" speed="22.22" disallow="tram rail_urban rail rail_electric rail_fast ship" oneway="0"/>
    <type id="highway.tertiary_link" priority="5" numLanes="1" speed="22.22" disallow="tram rail_urban rail rail_electric rail_fast ship" oneway="0"/>
    <type id="highway.track" priority="1" numLanes="1" speed="5.56" disallow="tram rail_urban rail rail_electric rail_fast ship" oneway="0"/>
    <type id="highway.trunk" priority="13" numLanes="2" speed="27.78" disallow="pedestrian bicycle tram rail_urban rail rail_electric rail_fast ship" oneway="0"/>
    <type id="highway.trunk_link" priority="8" numLanes="1" speed="22.22" disallow="pedestrian bicycle tram rail_urban rail rail_electric rail_fast ship" oneway="0"/>
    <type id="highway.unclassified" priority="4" numLanes="1" speed="13.89" disallow="tram rail_urban rail rail_electric rail_fast ship" oneway="0"/>
    <type id="highway.unsurfaced" priority="1" numLanes="1" speed="8.33" disallow="tram rail_urban rail rail_electric rail_fast ship" oneway="0"/>
    <type id="railway.highspeed" priority="21" numLanes="1" speed="69.44" allow="rail_fast" oneway="1"/>
    <type id="railway.light_rail" priority="19" numLanes="1" speed="27.78" allow="rail_urban" oneway="1"/>
    <type id="railway.preserved" priority="16" numLanes="1" speed="27.78" allow="rail" oneway="1"/>
    <type id="railway.rail" priority="20" numLanes="1" speed="44.44" allow="rail" oneway="1"/>
    <type id="railway.subway" priority="18" numLanes="1" speed="27.78" allow="rail_urban" oneway="1"/>
    <type id="railway.tram" priority="17" numLanes="1" speed="13.89" allow="tram" oneway="1"/>

    <edge id=":3210038541_0" function="internal">
        <lane id=":3210038541_0_0" index="0" disallow="tram rail_urban rail rail_electric rail_fast ship" speed="3.65" length="4.67" shape="1789.39,615.06 1790.81,614.81 1791.66,615.11 1791.92,615.97 1791.61,617.38"/>
    </edge>
    <edge id=":3210041371_0" function="internal">
        <lane id=":3210041371_0_0" index="0" disallow="tram rail_urban rail rail_electric rail_fast ship" speed="6.47" length="9.03" shape="1051.14,857.81 1049.18,856.29 1047.21,855.78 1045.23,856.28 1043.25,857.77"/>
    </edge>
    <edge id=":3210041371_1" function="internal">
        <lane id=":3210041371_1_0" index="0" disallow="tram rail_urban rail rail_electric rail_fast ship" speed="18.06" length="20.84" shape="1051.14,857.81 1036.52,842.99"/>
        <lane id=":3210041371_1_1" index="1" disallow="tram rail_urban rail rail_electric rail_fast ship" speed="18.06" length="20.84" shape="1053.43,855.57 1038.78,840.73"/>
    </edge>
    <edge id=":3210041371_3" function="internal">
        <lane id=":3210041371_3_0" index="0" disallow="tram rail_urban rail rail_electric rail_fast ship" speed="14.07" length="38.66" shape="1053.43,855.57 1052.02,851.10 1053.75,843.80 1058.61,833.67 1066.61,820.71"/>
    </edge>
    <edge id=":3210041371_4" function="internal">
        <lane id=":3210041371_4_0" index="0" disallow="tram rail_urban rail rail_electric rail_fast ship" speed="10.59" length="30.04" shape="1077.06,830.61 1066.69,837.49 1060.06,843.20 1057.17,847.74 1058.01,851.10"/>
    </edge>
    <edge id=":3210041371_5" function="internal">
        <lane id=":3210041371_5_0" index="0" disallow="tram rail_urban rail rail_electric rail_fast ship" speed="27.78" length="43.81" shape="1077.06,830.61 1069.17,836.06 1059.60,843.48 1050.30,851.27 1043.25,857.77"/>
        <lane id=":3210041371_5_1" index="1" disallow="tram rail_urban rail rail_electric rail_fast ship" speed="27.78" length="43.81" shape="1075.40,827.88 1067.41,833.40 1057.63,840.99 1048.13,848.94 1040.98,855.52"/>
    </edge>
    <edge id=":3210041371_7" function="internal">
        <lane id=":3210041371_7_0" index="0" disallow="tram rail_urban rail rail_electric rail_fast ship" speed="14.50" length="40.09" shape="1075.40,827.88 1061.59,835.71 1050.88,840.46 1043.28,842.14 1038.78,840.73"/>
    </edge>
    <edge id=":3210041371_8" function="internal">
        <lane id=":3210041371_8_0" index="0" disallow="tram rail_urban rail rail_electric rail_fast ship" speed="10.49" length="28.97" shape="1043.31,836.20 1046.66,837.18 1051.21,834.63 1056.98,828.55 1063.95,818.94"/>
    </edge>
    <edge id=":3210041371_9" function="internal">
        <lane id=":3210041371_9_0" index="0" disallow="tram rail_urban rail rail_electric rail_fast ship" speed="18.06" length="20.92" shape="1043.31,836.20 1058.01,851.10"/>
        <lane id=":3210041371_9_1" index="1" disallow="tram rail_urban rail rail_electric rail_fast ship" speed="18.06" length="20.92" shape="1041.04,838.47 1055.72,853.34"/>
    </edge>
    <edge id=":3210041371_11" function="internal">
        <lane id=":3210041371_11_0" index="0" disallow="tram rail_urban rail rail_electric rail_fast ship" speed="9.29" length="19.43" shape="1041.04,838.47 1044.21,842.70 1045.25,846.96 1044.18,851.23 1040.98,855.52"/>
    </edge>
    <edge id=":3210041371_12" function="internal">
        <lane id=":3210041371_12_0" index="0" disallow="tram rail_urban rail rail_electric rail_fast ship" speed="6.56" length="9.15" shape="1036.43,851.02 1037.95,848.99 1038.47,846.97 1037.99,844.97 1036.52,842.99"/>
    </edge>
    <edge id=":3210041371_13" function="internal">
        <lane id=":3210041371_13_0" index="0" disallow="tram rail_urban rail rail_electric rail_fast ship" speed="27.78" length="42.30" shape="1036.43,851.02 1042.92,844.18 1050.75,835.43 1058.30,826.46 1063.95,818.94"/>
    </edge>
    <edge id=":3210041371_14" function="internal">
        <lane id=":3210041371_14_0" index="0" disallow="tram rail_urban rail rail_electric rail_fast ship" speed="27.78" length="42.92" shape="1038.71,853.27 1045.26,846.36 1053.22,837.45 1060.90,828.31 1066.61,820.71"/>
    </edge>
    <edge id=":3210041371_15" function="internal">
        <lane id=":3210041371_15_0" index="0" disallow="tram rail_urban rail rail_electric rail_fast ship" speed="9.23" length="19.48" shape="1038.71,853.27 1042.97,850.04 1047.23,848.98 1051.48,850.07 1055.72,853.34"/>
    </edge>
    <edge id=":3317841801_0" function="internal">
        <lane id=":3317841801_0_0" index="0" disallow="tram rail_urban rail rail_electric rail_fast ship" speed="6.48" length="9.03" shape="1199.55,1005.44 1197.60,1003.90 1195.64,1003.37 1193.65,1003.83 1191.65,1005.30"/>
    </edge>
    <edge id=":3317841801_1" function="internal">
        <lane id=":3317841801_1_0" index="0" disallow="tram rail_urban rail rail_electric rail_fast ship" speed="13.89" length="20.82" shape="1199.55,1005.44 1185.09,990.45"/>
    </edge>
    <edge id=":3317841801_2" function="internal">
        <lane id=":3317841801_2_0" index="0" disallow="tram rail_urban rail rail_electric rail_fast ship" speed="8.71" length="16.89" shape="1199.55,1005.44 1196.31,1001.25 1194.90,997.38 1195.31,993.84 1197.55,990.63"/>
    </edge>
    <edge id=":3317841801_3" function="internal">
        <lane id=":3317841801_3_0" index="0" disallow="tram rail_urban rail rail_electric rail_fast ship" speed="3.65" length="4.67" shape="1199.55,1005.44 1199.30,1004.02 1199.60,1003.18 1200.46,1002.92 1201.87,1003.24"/>
    </edge>
    <edge id=":3317841801_4" function="internal">
        <lane id=":3317841801_4_0" index="0" disallow="tram rail_urban rail rail_electric rail_fast ship" speed="6.56" length="9.12" shape="1202.00,995.23 1200.48,997.19 1199.95,999.18 1200.41,1001.20 1201.87,1003.24"/>
    </edge>
    <edge id=":3317841801_5" function="internal">
        <lane id=":3317841801_5_0" index="0" disallow="tram rail_urban rail rail_electric rail_fast ship" speed="22.22" length="14.44" shape="1202.00,995.23 1191.65,1005.30"/>
        <lane id=":3317841801_5_1" index="1" disallow="tram rail_urban rail rail_electric rail_fast ship" speed="22.22" length="14.44" shape="1199.77,992.93 1189.42,1003.01"/>
    </edge>
    <edge id=":3317841801_7" function="internal">
        <lane id=":3317841801_7_0" index="0" disallow="tram rail_urban rail rail_electric rail_fast ship" speed="8.68" length="5.24" shape="1199.77,992.93 1196.50,995.06 1195.17,995.17"/>
    </edge>
    <edge id=":3317841801_8" function="internal">
        <lane id=":3317841801_8_0" index="0" disallow="tram rail_urban rail rail_electric rail_fast ship" speed="3.65" length="2.34" shape="1199.77,992.93 1198.35,993.19 1197.51,992.89"/>
    </edge>
    <edge id=":3317841801_14" function="internal">
        <lane id=":3317841801_14_0" index="0" disallow="tram rail_urban rail rail_electric rail_fast ship" speed="8.68" length="11.60" shape="1195.17,995.17 1192.96,995.36 1189.16,993.82 1185.09,990.45"/>
    </edge>
    <edge id=":3317841801_15" function="internal">
        <lane id=":3317841801_15_0" index="0" disallow="tram rail_urban rail rail_electric rail_fast ship" speed="3.65" length="2.34" shape="1197.51,992.89 1197.24,992.04 1197.55,990.63"/>
    </edge>
    <edge id=":3317841801_9" function="internal">
        <lane id=":3317841801_9_0" index="0" disallow="tram rail_urban rail rail_electric rail_fast ship" speed="6.53" length="9.10" shape="1184.94,998.43 1186.48,996.44 1187.01,994.45 1186.55,992.45 1185.09,990.45"/>
    </edge>
    <edge id=":3317841801_10" function="internal">
        <lane id=":3317841801_10_0" index="0" disallow="tram rail_urban rail rail_electric rail_fast ship" speed="22.22" length="14.47" shape="1184.94,998.43 1195.32,988.33"/>
        <lane id=":3317841801_10_1" index="1" disallow="tram rail_urban rail rail_electric rail_fast ship" speed="22.22" length="14.47" shape="1187.18,1000.72 1197.55,990.63"/>
    </edge>
    <edge id=":3317841801_12" function="internal">
        <lane id=":3317841801_12_0" index="0" disallow="tram rail_urban rail rail_electric rail_fast ship" speed="8.65" length="5.31" shape="1187.18,1000.72 1190.49,998.54 1191.83,998.43"/>
    </edge>
    <edge id=":3317841801_13" function="internal">
        <lane id=":3317841801_13_0" index="0" disallow="tram rail_urban rail rail_electric rail_fast ship" speed="3.65" length="2.34" shape="1187.18,1000.72 1188.60,1000.45 1189.44,1000.75"/>
    </edge>
    <edge id=":3317841801_16" function="internal">
        <lane id=":3317841801_16_0" index="0" disallow="tram rail_urban rail rail_electric rail_fast ship" speed="8.65" length="11.62" shape="1191.83,998.43 1194.04,998.23 1197.83,999.80 1201.87,1003.24"/>
    </edge>
    <edge id=":3317841801_17" function="internal">
        <lane id=":3317841801_17_0" index="0" disallow="tram rail_urban rail rail_electric rail_fast ship" speed="3.65" length="2.34" shape="1189.44,1000.75 1189.72,1001.60 1189.42,1003.01"/>
    </edge>
    <edge id=":3317841811_0" function="internal">
        <lane id=":3317841811_0_0" index="0" disallow="tram rail_urban rail rail_electric rail_fast ship" speed="6.61" length="9.28" shape="1236.64,691.72 1234.69,690.22 1232.68,689.72 1230.61,690.24 1228.49,691.77"/>
    </edge>
    <edge id=":3317841811_1" function="internal">
        <lane id=":3317841811_1_0" index="0" disallow="tram rail_urban rail rail_electric rail_fast ship" speed="13.89" length="14.50" shape="1236.64,691.72 1234.07,689.10 1231.51,686.60 1228.88,684.18 1226.12,681.75"/>
    </edge>
    <edge id=":3317841811_2" function="internal">
        <lane id=":3317841811_2_0" index="0" disallow="tram rail_urban rail rail_electric rail_fast ship" speed="3.65" length="4.67" shape="1236.64,691.72 1236.39,690.30 1236.69,689.46 1237.55,689.19 1238.96,689.51"/>
    </edge>
    <edge id=":3317841811_3" function="internal">
        <lane id=":3317841811_3_0" index="0" disallow="tram rail_urban rail rail_electric rail_fast ship" speed="6.54" length="9.01" shape="1239.04,681.58 1237.56,683.54 1237.05,685.51 1237.52,687.50 1238.96,689.51"/>
    </edge>
    <edge id=":3317841811_4" function="internal">
        <lane id=":3317841811_4_0" index="0" disallow="tram rail_urban rail rail_electric rail_fast ship" speed="27.78" length="14.63" shape="1239.04,681.58 1228.49,691.77"/>
        <lane id=":3317841811_4_1" index="1" disallow="tram rail_urban rail rail_electric rail_fast ship" speed="27.78" length="14.63" shape="1236.78,679.31 1226.29,689.44"/>
    </edge>
    <edge id=":3317841811_6" function="internal">
        <lane id=":3317841811_6_0" index="0" disallow="tram rail_urban rail rail_electric rail_fast ship" speed="7.65" length="12.14" shape="1236.78,679.31 1233.76,681.79 1230.98,683.03 1228.43,683.01 1226.12,681.75"/>
    </edge>
    <edge id=":3317841811_7" function="internal">
        <lane id=":3317841811_7_0" index="0" disallow="tram rail_urban rail rail_electric rail_fast ship" speed="13.89" length="14.80" shape="1228.22,679.33 1231.00,681.79 1233.71,684.29 1236.35,686.85 1238.96,689.51"/>
    </edge>
    <edge id=":3317841811_8" function="internal">
        <lane id=":3317841811_8_0" index="0" disallow="tram rail_urban rail rail_electric rail_fast ship" speed="7.12" length="11.87" shape="1228.22,679.33 1229.82,681.45 1230.03,683.84 1228.86,686.50 1226.29,689.44"/>
    </edge>
    <edge id=":3317841811_9" function="internal">
        <lane id=":3317841811_9_0" index="0" disallow="tram rail_urban rail rail_electric rail_fast ship" speed="3.65" length="4.67" shape="1228.22,679.33 1228.60,680.72 1228.38,681.58 1227.56,681.93 1226.12,681.75"/>
    </edge>
    <edge id=":3317841812_0" function="internal">
        <lane id=":3317841812_0_0" index="0" allow="pedestrian delivery bicycle" speed="6.57" length="9.11" shape="1374.65,835.68 1372.66,834.19 1370.66,833.69 1368.65,834.17 1366.63,835.64"/>
    </edge>
    <edge id=":3317841812_1" function="internal">
        <lane id=":3317841812_1_0" index="0" allow="pedestrian delivery bicycle" speed="9.72" length="20.91" shape="1374.65,835.68 1360.02,820.73"/>
    </edge>
    <edge id=":3317841812_2" function="internal">
        <lane id=":3317841812_2_0" index="0" allow="pedestrian delivery bicycle" speed="8.73" length="16.99" shape="1374.65,835.68 1371.33,831.58 1369.87,827.73 1370.25,824.15 1372.48,820.82"/>
    </edge>
    <edge id=":3317841812_3" function="internal">
        <lane id=":3317841812_3_0" index="0" allow="pedestrian delivery bicycle" speed="3.65" length="4.67" shape="1374.65,835.68 1374.36,834.26 1374.64,833.41 1375.49,833.13 1376.91,833.41"/>
    </edge>
    <edge id=":3317841812_4" function="internal">
        <lane id=":3317841812_4_0" index="0" allow="pedestrian delivery bicycle" speed="6.58" length="9.22" shape="1377.04,825.32 1375.50,827.38 1374.96,829.41 1375.43,831.42 1376.91,833.41"/>
    </edge>
    <edge id=":3317841812_5" function="internal">
        <lane id=":3317841812_5_0" index="0" disallow="tram rail_urban rail rail_electric rail_fast ship" speed="22.22" length="14.62" shape="1377.04,825.32 1366.63,835.64"/>
        <lane id=":3317841812_5_1" index="1" disallow="tram rail_urban rail rail_electric rail_fast ship" speed="22.22" length="14.62" shape="1374.76,823.07 1364.40,833.34"/>
    </edge>
    <edge id=":3317841812_7" function="internal">
        <lane id=":3317841812_7_0" index="0" disallow="tram rail_urban rail rail_electric rail_fast ship" speed="8.62" length="5.41" shape="1374.76,823.07 1371.46,825.34 1370.05,825.48"/>
    </edge>
    <edge id=":3317841812_8" function="internal">
        <lane id=":3317841812_8_0" index="0" disallow="tram rail_urban rail rail_electric rail_fast ship" speed="3.65" length="2.34" shape="1374.76,823.07 1373.35,823.36 1372.49,823.09"/>
    </edge>
    <edge id=":3317841812_18" function="internal">
        <lane id=":3317841812_18_0" index="0" disallow="tram rail_urban rail rail_electric rail_fast ship" speed="8.62" length="11.60" shape="1370.05,825.48 1367.90,825.70 1364.09,824.17 1360.02,820.73"/>
    </edge>
    <edge id=":3317841812_19" function="internal">
        <lane id=":3317841812_19_0" index="0" disallow="tram rail_urban rail rail_electric rail_fast ship" speed="3.65" length="2.34" shape="1372.49,823.09 1372.21,822.24 1372.48,820.82"/>
    </edge>
    <edge id=":3317841812_9" function="internal">
        <lane id=":3317841812_9_0" index="0" disallow="tram rail_urban rail rail_electric rail_fast ship" speed="6.44" length="9.03" shape="1362.33,818.52 1364.29,820.05 1366.25,820.57 1368.22,820.08 1370.20,818.58"/>
    </edge>
    <edge id=":3317841812_10" function="internal">
        <lane id=":3317841812_10_0" index="0" allow="pedestrian delivery bicycle" speed="9.72" length="20.84" shape="1362.33,818.52 1376.91,833.41"/>
    </edge>
    <edge id=":3317841812_11" function="internal">
        <lane id=":3317841812_11_0" index="0" disallow="tram rail_urban rail rail_electric rail_fast ship" speed="8.71" length="16.91" shape="1362.33,818.52 1365.59,822.72 1367.03,826.59 1366.63,830.13 1364.40,833.34"/>
    </edge>
    <edge id=":3317841812_12" function="internal">
        <lane id=":3317841812_12_0" index="0" disallow="tram rail_urban rail rail_electric rail_fast ship" speed="3.65" length="4.67" shape="1362.33,818.52 1362.58,819.94 1362.28,820.78 1361.43,821.04 1360.02,820.73"/>
    </edge>
    <edge id=":3317841812_13" function="internal">
        <lane id=":3317841812_13_0" index="0" disallow="tram rail_urban rail rail_electric rail_fast ship" speed="6.55" length="9.13" shape="1359.95,828.74 1361.46,826.78 1361.97,824.80 1361.49,822.78 1360.02,820.73"/>
    </edge>
    <edge id=":3317841812_14" function="internal">
        <lane id=":3317841812_14_0" index="0" disallow="tram rail_urban rail rail_electric rail_fast ship" speed="22.22" length="14.47" shape="1359.95,828.74 1370.20,818.58"/>
        <lane id=":3317841812_14_1" index="1" disallow="tram rail_urban rail rail_electric rail_fast ship" speed="22.22" length="14.47" shape="1362.18,831.04 1372.48,820.82"/>
    </edge>
    <edge id=":3317841812_16" function="internal">
        <lane id=":3317841812_16_0" index="0" allow="pedestrian delivery bicycle" speed="8.72" length="5.17" shape="1362.18,831.04 1365.45,828.91 1366.71,828.80"/>
    </edge>
    <edge id=":3317841812_17" function="internal">
        <lane id=":3317841812_17_0" index="0" disallow="tram rail_urban rail rail_electric rail_fast ship" speed="3.65" length="2.34" shape="1362.18,831.04 1363.60,830.78 1364.44,831.08"/>
    </edge>
    <edge id=":3317841812_20" function="internal">
        <lane id=":3317841812_20_0" index="0" allow="pedestrian delivery bicycle" speed="8.72" length="11.66" shape="1366.71,828.80 1368.99,828.60 1372.81,830.10 1376.91,833.41"/>
    </edge>
    <edge id=":3317841812_21" function="internal">
        <lane id=":3317841812_21_0" index="0" disallow="tram rail_urban rail rail_electric rail_fast ship" speed="3.65" length="2.34" shape="1364.44,831.08 1364.71,831.93 1364.40,833.34"/>
    </edge>
    <edge id=":3317841813_0" function="internal">
        <lane id=":3317841813_0_0" index="0" disallow="tram rail_urban rail rail_electric rail_fast ship" speed="13.89" length="13.47" shape="1325.98,1141.64 1324.33,1138.54 1322.67,1135.77 1320.80,1133.16 1318.50,1130.51"/>
    </edge>
    <edge id=":3317841813_1" function="internal">
        <lane id=":3317841813_1_0" index="0" disallow="tram rail_urban rail rail_electric rail_fast ship" speed="7.60" length="5.77" shape="1325.98,1141.64 1324.54,1137.49 1324.72,1136.13"/>
    </edge>
    <edge id=":3317841813_2" function="internal">
        <lane id=":3317841813_2_0" index="0" disallow="tram rail_urban rail rail_electric rail_fast ship" speed="3.65" length="2.34" shape="1325.98,1141.64 1326.15,1140.21 1326.67,1139.49"/>
    </edge>
    <edge id=":3317841813_9" function="internal">
        <lane id=":3317841813_9_0" index="0" disallow="tram rail_urban rail rail_electric rail_fast ship" speed="7.60" length="9.60" shape="1324.72,1136.13 1324.96,1134.23 1327.24,1131.86 1331.39,1130.39"/>
    </edge>
    <edge id=":3317841813_10" function="internal">
        <lane id=":3317841813_10_0" index="0" disallow="tram rail_urban rail rail_electric rail_fast ship" speed="3.65" length="2.34" shape="1326.67,1139.49 1327.57,1139.48 1328.83,1140.18"/>
    </edge>
    <edge id=":3317841813_3" function="internal">
        <lane id=":3317841813_3_0" index="0" disallow="tram rail_urban rail rail_electric rail_fast ship" speed="5.99" length="9.08" shape="1332.02,1133.53 1329.57,1134.40 1328.22,1135.80 1327.98,1137.72 1328.83,1140.18"/>
    </edge>
    <edge id=":3317841813_4" function="internal">
        <lane id=":3317841813_4_0" index="0" disallow="tram rail_urban rail rail_electric rail_fast ship" speed="10.53" length="14.47" shape="1332.02,1133.53 1327.82,1134.02 1324.17,1133.68 1321.06,1132.51 1318.50,1130.51"/>
    </edge>
    <edge id=":3317841813_5" function="internal">
        <lane id=":3317841813_5_0" index="0" disallow="tram rail_urban rail rail_electric rail_fast ship" speed="3.65" length="4.67" shape="1332.02,1133.53 1330.69,1132.98 1330.14,1132.28 1330.37,1131.41 1331.39,1130.39"/>
    </edge>
    <edge id=":3317841813_6" function="internal">
        <lane id=":3317841813_6_0" index="0" disallow="tram rail_urban rail rail_electric rail_fast ship" speed="9.33" length="11.24" shape="1320.81,1128.31 1322.74,1129.76 1325.14,1130.60 1328.02,1130.81 1331.39,1130.39"/>
    </edge>
    <edge id=":3317841813_7" function="internal">
        <lane id=":3317841813_7_0" index="0" disallow="tram rail_urban rail rail_electric rail_fast ship" speed="13.89" length="14.37" shape="1320.81,1128.31 1323.20,1131.07 1325.25,1133.93 1327.09,1136.96 1328.83,1140.18"/>
    </edge>
    <edge id=":3317841813_8" function="internal">
        <lane id=":3317841813_8_0" index="0" disallow="tram rail_urban rail rail_electric rail_fast ship" speed="3.65" length="2.34" shape="1320.81,1128.31 1321.06,1129.73 1320.76,1130.57"/>
    </edge>
    <edge id=":3317841813_11" function="internal">
        <lane id=":3317841813_11_0" index="0" disallow="tram rail_urban rail rail_electric rail_fast ship" speed="3.65" length="2.34" shape="1320.76,1130.57 1319.90,1130.83 1318.50,1130.51"/>
    </edge>
    <edge id=":3317841824_0" function="internal">
        <lane id=":3317841824_0_0" index="0" disallow="tram rail_urban rail rail_electric rail_fast ship" speed="3.65" length="4.67" shape="1703.92,1143.16 1704.85,1144.27 1705.01,1145.15 1704.40,1145.81 1703.02,1146.24"/>
    </edge>
    <edge id=":3672230049_0" function="internal">
        <lane id=":3672230049_0_0" index="0" disallow="tram rail_urban rail rail_electric rail_fast ship" speed="3.65" length="4.67" shape="1263.80,1250.29 1262.48,1249.70 1261.95,1248.98 1262.21,1248.12 1263.26,1247.13"/>
    </edge>
    <edge id=":3672230061_0" function="internal">
        <lane id=":3672230061_0_0" index="0" disallow="tram rail_urban rail rail_electric rail_fast ship" speed="13.89" length="13.45" shape="1357.74,1218.06 1357.10,1214.61 1356.26,1211.51 1355.20,1208.47 1353.90,1205.20"/>
    </edge>
    <edge id=":3672230061_1" function="internal">
        <lane id=":3672230061_1_0" index="0" disallow="tram rail_urban rail rail_electric rail_fast ship" speed="8.98" length="5.27" shape="1357.74,1218.06 1357.73,1214.48 1358.28,1212.88"/>
    </edge>
    <edge id=":3672230061_2" function="internal">
        <lane id=":3672230061_2_0" index="0" disallow="tram rail_urban rail rail_electric rail_fast ship" speed="3.65" length="2.34" shape="1357.74,1218.06 1358.31,1216.73 1359.03,1216.19"/>
    </edge>
    <edge id=":3672230061_9" function="internal">
        <lane id=":3672230061_9_0" index="0" disallow="tram rail_urban rail rail_electric rail_fast ship" speed="8.98" length="8.71" shape="1358.28,1212.88 1358.79,1211.41 1360.94,1208.85 1364.16,1206.81"/>
    </edge>
    <edge id=":3672230061_10" function="internal">
        <lane id=":3672230061_10_0" index="0" disallow="tram rail_urban rail rail_electric rail_fast ship" speed="3.65" length="2.34" shape="1359.03,1216.19 1359.89,1216.45 1360.89,1217.48"/>
    </edge>
    <edge id=":3672230061_3" function="internal">
        <lane id=":3672230061_3_0" index="0" disallow="tram rail_urban rail rail_electric rail_fast ship" speed="7.60" length="9.78" shape="1365.53,1209.70 1363.22,1211.15 1361.67,1212.93 1360.90,1215.04 1360.89,1217.48"/>
    </edge>
    <edge id=":3672230061_4" function="internal">
        <lane id=":3672230061_4_0" index="0" disallow="tram rail_urban rail rail_electric rail_fast ship" speed="7.91" length="14.40" shape="1365.53,1209.70 1361.73,1210.88 1358.53,1210.52 1355.92,1208.63 1353.90,1205.20"/>
    </edge>
    <edge id=":3672230061_5" function="internal">
        <lane id=":3672230061_5_0" index="0" disallow="tram rail_urban rail rail_electric rail_fast ship" speed="3.65" length="4.67" shape="1365.53,1209.70 1364.10,1209.49 1363.40,1208.94 1363.42,1208.05 1364.16,1206.81"/>
    </edge>
    <edge id=":3672230061_6" function="internal">
        <lane id=":3672230061_6_0" index="0" disallow="tram rail_urban rail rail_electric rail_fast ship" speed="6.39" length="9.04" shape="1356.86,1203.99 1358.13,1206.14 1359.76,1207.32 1361.78,1207.55 1364.16,1206.81"/>
    </edge>
    <edge id=":3672230061_7" function="internal">
        <lane id=":3672230061_7_0" index="0" disallow="tram rail_urban rail rail_electric rail_fast ship" speed="13.89" length="14.12" shape="1356.86,1203.99 1358.19,1207.35 1359.32,1210.61 1360.23,1213.94 1360.89,1217.48"/>
    </edge>
    <edge id=":3672230061_8" function="internal">
        <lane id=":3672230061_8_0" index="0" disallow="tram rail_urban rail rail_electric rail_fast ship" speed="3.65" length="2.34" shape="1356.86,1203.99 1356.58,1205.40 1355.99,1206.07"/>
    </edge>
    <edge id=":3672230061_11" function="internal">
        <lane id=":3672230061_11_0" index="0" disallow="tram rail_urban rail rail_electric rail_fast ship" speed="3.65" length="2.34" shape="1355.99,1206.07 1355.10,1206.01 1353.90,1205.20"/>
    </edge>