<?xml version="1.0" encoding="UTF-8"?>

<!-- generated on 03/26/20 15:55:54 by Eclipse SUMO netedit Version 1.4.0
<configuration xmlns:xsi="http://www.w3.org/2001/XMLSchema-instance" xsi:noNamespaceSchemaLocation="http://sumo.dlr.de/xsd/netconvertConfiguration.xsd">

    <input>
        <sumo-net-file value="E:\network\case03\intersection.net.xml"/>
    </input>

    <output>
        <output-file value="E:\network\case03\intersection.net.xml"/>
    </output>

    <processing>
        <geometry.min-radius.fix.railways value="false"/>
        <geometry.max-grade.fix value="false"/>
        <offset.disable-normalization value="true"/>
        <lefthand value="false"/>
    </processing>

    <junctions>
        <no-turnarounds value="true"/>
        <junctions.corner-detail value="0"/>
        <junctions.limit-turn-speed value="-1"/>
        <rectangular-lane-cut value="false"/>
    </junctions>

    <pedestrian>
        <walkingareas value="false"/>
    </pedestrian>

    <visualisation>
        <registry-viewport value="true"/>
    </visualisation>

    <report>
        <aggregate-warnings value="5"/>
    </report>

</configuration>
-->

<net version="1.3" xmlns:xsi="http://www.w3.org/2001/XMLSchema-instance" xsi:noNamespaceSchemaLocation="http://sumo.dlr.de/xsd/net_file.xsd">

    <location netOffset="0.00,0.00" convBoundary="-250.72,-250.57,750.00,250.70" origBoundary="-10000000000.00,-10000000000.00,10000000000.00,10000000000.00" projParameter="!"/>

    <edge id=":gneJ0_0" function="internal">
        <lane id=":gneJ0_0_0" index="0" speed="13.89" length="8.42" shape="-4.86,121.73 -4.80,113.73"/>
        <lane id=":gneJ0_0_1" index="1" speed="13.89" length="8.42" shape="-4.86,121.73 -4.35,119.27 -3.23,117.73 -2.11,116.20 -1.60,113.73"/>
    </edge>
    <edge id=":gneJ0_2" function="internal">
        <lane id=":gneJ0_2_0" index="0" speed="13.89" length="8.00" shape="1.60,113.73 1.62,121.74"/>
    </edge>
    <edge id=":gneJ00_0" function="internal">
        <lane id=":gneJ00_0_0" index="0" speed="13.89" length="17.60" shape="-4.80,10.40 -4.86,-7.20"/>
    </edge>
    <edge id=":gneJ00_1" function="internal">
        <lane id=":gneJ00_1_0" index="0" speed="13.89" length="16.85" shape="-1.60,10.40 -1.05,5.15 0.60,1.40 3.35,-0.85 7.20,-1.60"/>
    </edge>
    <edge id=":gneJ00_2" function="internal">
        <lane id=":gneJ00_2_0" index="0" speed="13.89" length="17.66" shape="7.20,4.80 -10.46,4.75"/>
    </edge>
    <edge id=":gneJ00_3" function="internal">
        <lane id=":gneJ00_3_0" index="0" speed="13.89" length="16.90" shape="7.20,1.60 1.92,1.05 -1.85,-0.60 -4.11,-3.35 -4.86,-7.20"/>
    </edge>
    <edge id=":gneJ00_4" function="internal">
        <lane id=":gneJ00_4_0" index="0" speed="13.89" length="17.60" shape="1.44,-7.20 1.60,10.40"/>
    </edge>
    <edge id=":gneJ00_5" function="internal">
        <lane id=":gneJ00_5_0" index="0" speed="13.89" length="16.72" shape="-1.76,-7.20 -2.31,-1.97 -3.94,1.76 -6.66,4.00 -10.46,4.75"/>
    </edge>
    <edge id=":gneJ00_6" function="internal">
        <lane id=":gneJ00_6_0" index="0" speed="13.89" length="17.66" shape="-10.46,-1.59 7.20,-1.60"/>
    </edge>
    <edge id=":gneJ00_7" function="internal">
        <lane id=":gneJ00_7_0" index="0" speed="13.89" length="16.89" shape="-10.46,1.61 -5.18,2.16 -1.41,3.81 0.85,6.55 1.60,10.40"/>
    </edge>
    <edge id=":gneJ1_0" function="internal">
        <lane id=":gneJ1_0_0" index="0" speed="13.89" length="8.41" shape="121.68,4.82 113.68,4.80"/>
        <lane id=":gneJ1_0_1" index="1" speed="13.89" length="8.41" shape="121.68,4.82 119.22,4.32 117.68,3.21 116.14,2.10 113.68,1.60"/>
    </edge>
    <edge id=":gneJ1_2" function="internal">
        <lane id=":gneJ1_2_0" index="0" speed="13.89" length="8.00" shape="113.68,-1.60 121.68,-1.54"/>
    </edge>
    <edge id=":gneJ10_0" function="internal">
        <lane id=":gneJ10_0_0" index="0" speed="13.89" length="8.38" shape="495.28,124.00 495.20,116.00"/>
        <lane id=":gneJ10_0_1" index="1" speed="13.89" length="8.38" shape="495.28,124.00 495.77,121.54 496.84,120.00 497.91,118.46 498.40,116.00"/>
    </edge>
    <edge id=":gneJ10_2" function="internal">
        <lane id=":gneJ10_2_0" index="0" speed="13.89" length="8.00" shape="501.60,116.00 501.60,124.00"/>
    </edge>
    <edge id=":gneJ11_0" function="internal">
        <lane id=":gneJ11_0_0" index="0" speed="13.89" length="8.41" shape="624.00,4.80 616.00,4.80"/>
        <lane id=":gneJ11_0_1" index="1" speed="13.89" length="8.41" shape="624.00,4.80 621.54,4.30 620.00,3.20 618.46,2.10 616.00,1.60"/>
    </edge>
    <edge id=":gneJ11_2" function="internal">
        <lane id=":gneJ11_2_0" index="0" speed="13.89" length="8.00" shape="616.00,-1.60 624.00,-1.60"/>
    </edge>
    <edge id=":gneJ12_0" function="internal">
        <lane id=":gneJ12_0_0" index="0" speed="13.89" length="8.00" shape="495.14,-114.05 495.11,-122.06"/>
    </edge>
    <edge id=":gneJ12_1" function="internal">
        <lane id=":gneJ12_1_0" index="0" speed="13.89" length="8.40" shape="501.60,-122.06 501.60,-114.05"/>
        <lane id=":gneJ12_1_1" index="1" speed="13.89" length="8.40" shape="501.60,-122.06 501.10,-119.59 500.00,-118.05 498.90,-116.52 498.40,-114.05"/>
    </edge>
    <edge id=":gneJ2_0" function="internal">
        <lane id=":gneJ2_0_0" index="0" speed="13.89" length="8.02" shape="-4.91,-110.49 -4.97,-118.51"/>
    </edge>
    <edge id=":gneJ2_1" function="internal">
        <lane id=":gneJ2_1_0" index="0" speed="13.89" length="8.41" shape="1.54,-118.50 1.57,-110.49"/>
        <lane id=":gneJ2_1_1" index="1" speed="13.89" length="8.41" shape="1.54,-118.50 1.05,-116.04 -0.04,-114.50 -1.13,-112.95 -1.63,-110.49"/>
    </edge>
    <edge id=":gneJ3_0" function="internal">
        <lane id=":gneJ3_0_0" index="0" speed="13.89" length="8.00" shape="-116.36,4.83 -124.36,4.88"/>
    </edge>
    <edge id=":gneJ3_1" function="internal">
        <lane id=":gneJ3_1_0" index="0" speed="13.89" length="8.39" shape="-124.36,-1.51 -116.36,-1.57"/>
        <lane id=":gneJ3_1_1" index="1" speed="13.89" length="8.39" shape="-124.36,-1.51 -121.90,-1.02 -120.36,0.06 -118.82,1.14 -116.36,1.63"/>
    </edge>
    <edge id=":gneJ4_0" function="internal">
        <lane id=":gneJ4_0_0" index="0" speed="13.89" length="8.00" shape="383.60,4.75 375.60,4.75"/>
    </edge>
    <edge id=":gneJ4_1" function="internal">
        <lane id=":gneJ4_1_0" index="0" speed="13.89" length="8.42" shape="375.60,-1.71 383.60,-1.65"/>
        <lane id=":gneJ4_1_1" index="1" speed="13.89" length="8.42" shape="375.60,-1.71 378.06,-1.20 379.60,-0.08 381.13,1.04 383.60,1.55"/>
    </edge>
    <edge id=":gneJ9_0" function="internal">
        <lane id=":gneJ9_0_0" index="0" speed="13.89" length="17.78" shape="495.20,10.36 495.14,-7.42"/>
    </edge>
    <edge id=":gneJ9_1" function="internal">
        <lane id=":gneJ9_1_0" index="0" speed="13.89" length="16.82" shape="498.40,10.36 498.95,5.13 500.60,1.39 503.35,-0.85 507.20,-1.60"/>
    </edge>
    <edge id=":gneJ9_2" function="internal">
        <lane id=":gneJ9_2_0" index="0" speed="13.89" length="17.66" shape="507.20,4.76 489.54,4.74"/>
    </edge>
    <edge id=":gneJ9_3" function="internal">
        <lane id=":gneJ9_3_0" index="0" speed="13.89" length="17.04" shape="507.20,1.56 501.92,1.00 498.15,-0.69 495.89,-3.49 495.14,-7.42"/>
    </edge>
    <edge id=":gneJ9_4" function="internal">
        <lane id=":gneJ9_4_0" index="0" speed="13.89" length="17.78" shape="501.60,-7.42 501.60,10.36"/>
    </edge>
    <edge id=":gneJ9_5" function="internal">
        <lane id=":gneJ9_5_0" index="0" speed="13.89" length="17.03" shape="498.40,-7.42 497.85,-2.10 496.19,1.70 493.42,3.98 489.54,4.74"/>
    </edge>
    <edge id=":gneJ9_6" function="internal">
        <lane id=":gneJ9_6_0" index="0" speed="13.89" length="17.66" shape="489.54,-1.65 507.20,-1.60"/>
    </edge>
    <edge id=":gneJ9_7" function="internal">
        <lane id=":gneJ9_7_0" index="0" speed="13.89" length="16.91" shape="489.54,1.55 494.82,2.10 498.59,3.75 500.85,6.50 501.60,10.36"/>
    </edge>

    <edge id="-gneE0" from="gneJ0" to="gneJ00" priority="1">
        <lane id="-gneE0_0" index="0" speed="13.89" length="103.33" shape="-4.80,113.73 -4.80,10.40"/>
        <lane id="-gneE0_1" index="1" speed="13.89" length="103.33" shape="-1.60,113.73 -1.60,10.40"/>
    </edge>
    <edge id="-gneE1" from="gneJ1" to="gneJ00" priority="1">
        <lane id="-gneE1_0" index="0" speed="13.89" length="106.48" shape="113.68,4.80 7.20,4.80"/>
        <lane id="-gneE1_1" index="1" speed="13.89" length="106.48" shape="113.68,1.60 7.20,1.60"/>
    </edge>
    <edge id="-gneE10" from="gneJ10" to="gneJ9" priority="-1">
        <lane id="-gneE10_0" index="0" speed="13.89" length="105.64" shape="495.20,116.00 495.20,10.36"/>
        <lane id="-gneE10_1" index="1" speed="13.89" length="105.64" shape="498.40,116.00 498.40,10.36"/>
    </edge>
    <edge id="-gneE11" from="gneJ11" to="gneJ9" priority="-1" shape="620.00,0.00 507.22,-0.04">
        <lane id="-gneE11_0" index="0" speed="13.89" length="108.80" shape="616.00,4.80 507.20,4.76"/>
        <lane id="-gneE11_1" index="1" speed="13.89" length="108.80" shape="616.00,1.60 507.20,1.56"/>
    </edge>
    <edge id="-gneE12" from="gneJ12" to="gneJ9" priority="-1" shape="496.80,-118.11 496.80,-7.42">
        <lane id="-gneE12_0" index="0" speed="13.89" length="106.63" shape="501.60,-114.05 501.60,-7.42"/>
        <lane id="-gneE12_1" index="1" speed="13.89" length="106.63" shape="498.40,-114.05 498.40,-7.42"/>
    </edge>
    <edge id="-gneE13" from="gneJ13" to="gneJ10" priority="-1" shape="496.88,250.32 496.88,116.24">
        <lane id="-gneE13_0" index="0" speed="13.89" length="126.00" shape="495.28,250.00 495.28,124.00"/>
    </edge>
    <edge id="-gneE14" from="gneJ14" to="gneJ11" priority="-1" shape="749.97,3.17 615.97,3.20">
        <lane id="-gneE14_0" index="0" speed="13.89" length="126.00" shape="750.00,4.77 624.00,4.80"/>
    </edge>
    <edge id="-gneE16" from="gneJ16" to="gneJ12" priority="-1">
        <lane id="-gneE16_0" index="0" speed="13.89" length="127.94" shape="501.60,-250.00 501.60,-122.06"/>
    </edge>
    <edge id="-gneE2" from="gneJ2" to="gneJ00" priority="1" shape="-3.22,-116.59 -3.37,0.08">
        <lane id="-gneE2_0" index="0" speed="13.89" length="103.29" shape="1.57,-110.49 1.44,-7.20"/>
        <lane id="-gneE2_1" index="1" speed="13.89" length="103.29" shape="-1.63,-110.49 -1.76,-7.20"/>
    </edge>
    <edge id="-gneE3" from="gneJ3" to="gneJ00" priority="1" shape="-120.00,3.23 -6.31,3.21">
        <lane id="-gneE3_0" index="0" speed="13.89" length="105.90" shape="-116.36,-1.57 -10.46,-1.59"/>
        <lane id="-gneE3_1" index="1" speed="13.89" length="105.90" shape="-116.36,1.63 -10.46,1.61"/>
    </edge>
    <edge id="-gneE4" from="gneJ4" to="gneJ1" priority="-1" shape="379.62,3.15 115.84,3.22">
        <lane id="-gneE4_0" index="0" speed="13.89" length="253.92" shape="375.60,4.75 121.68,4.82"/>
    </edge>
    <edge id="-gneE5" from="gneJ5" to="gneJ0" priority="-1" shape="-3.39,250.70 -3.25,115.87">
        <lane id="-gneE5_0" index="0" speed="13.89" length="128.26" shape="-4.99,249.99 -4.86,121.73"/>
    </edge>
    <edge id="-gneE6" from="gneJ6" to="gneJ3" priority="-1" spreadType="center" shape="-249.69,-1.51 -120.22,-1.51">
        <lane id="-gneE6_0" index="0" speed="13.89" length="125.64" shape="-250.00,-1.51 -124.36,-1.51"/>
    </edge>
    <edge id="-gneE7" from="gneJ7" to="gneJ2" priority="-1" shape="-0.18,-250.07 -0.05,-112.53">
        <lane id="-gneE7_0" index="0" speed="13.89" length="131.57" shape="1.42,-250.07 1.54,-118.50"/>
    </edge>
    <edge id="-gneE9" from="gneJ9" to="gneJ4" priority="-1" shape="498.46,3.14 379.50,3.15">
        <lane id="-gneE9_0" index="0" speed="13.89" length="105.94" shape="489.54,4.74 383.60,4.75"/>
    </edge>
    <edge id="gneE0" from="gneJ00" to="gneJ0" priority="1">
        <lane id="gneE0_0" index="0" speed="13.89" length="103.33" shape="1.60,10.40 1.60,113.73"/>
    </edge>
    <edge id="gneE1" from="gneJ00" to="gneJ1" priority="1">
        <lane id="gneE1_0" index="0" speed="13.89" length="106.48" shape="7.20,-1.60 113.68,-1.60"/>
    </edge>
    <edge id="gneE10" from="gneJ9" to="gneJ10" priority="-1">
        <lane id="gneE10_0" index="0" speed="13.89" length="105.64" shape="501.60,10.36 501.60,116.00"/>
    </edge>
    <edge id="gneE11" from="gneJ9" to="gneJ11" priority="-1" shape="507.09,0.00 620.00,0.00">
        <lane id="gneE11_0" index="0" speed="13.89" length="108.80" shape="507.20,-1.60 616.00,-1.60"/>
    </edge>
    <edge id="gneE12" from="gneJ9" to="gneJ12" priority="-1" shape="496.74,-7.42 496.74,-118.03">
        <lane id="gneE12_0" index="0" speed="13.89" length="106.63" shape="495.14,-7.42 495.14,-114.05"/>
    </edge>
    <edge id="gneE13" from="gneJ10" to="gneJ13" priority="-1">
        <lane id="gneE13_0" index="0" speed="13.89" length="126.00" shape="501.60,124.00 501.60,250.00"/>
    </edge>
    <edge id="gneE14" from="gneJ11" to="gneJ14" priority="-1">
        <lane id="gneE14_0" index="0" speed="13.89" length="126.00" shape="624.00,-1.60 750.00,-1.60"/>
    </edge>
    <edge id="gneE16" from="gneJ12" to="gneJ16" priority="-1" shape="496.71,-118.00 496.73,-250.57">
        <lane id="gneE16_0" index="0" speed="13.89" length="127.94" shape="495.11,-122.06 495.13,-250.00"/>
    </edge>
    <edge id="gneE2" from="gneJ00" to="gneJ2" priority="1" shape="-3.26,0.25 -3.31,-116.49">
        <lane id="gneE2_0" index="0" speed="13.89" length="103.30" shape="-4.86,-7.20 -4.91,-110.49"/>
    </edge>
    <edge id="gneE3" from="gneJ00" to="gneJ3" priority="1" shape="-6.25,3.15 -120.00,3.23">
        <lane id="gneE3_0" index="0" speed="13.89" length="105.90" shape="-10.46,4.75 -116.36,4.83"/>
    </edge>
    <edge id="gneE4" from="gneJ1" to="gneJ4" priority="-1" shape="115.36,0.06 381.49,-0.11">
        <lane id="gneE4_0" index="0" speed="13.89" length="253.92" shape="121.68,-1.54 375.60,-1.71"/>
    </edge>
    <edge id="gneE5" from="gneJ0" to="gneJ5" priority="-1" shape="0.02,115.47 0.00,250.00">
        <lane id="gneE5_0" index="0" speed="13.89" length="128.26" shape="1.62,121.74 1.60,250.00"/>
    </edge>
    <edge id="gneE6" from="gneJ3" to="gneJ6" priority="-1" spreadType="center" shape="-120.72,4.88 -250.72,4.91">
        <lane id="gneE6_0" index="0" speed="13.89" length="125.64" shape="-124.36,4.88 -250.00,4.91"/>
    </edge>
    <edge id="gneE7" from="gneJ2" to="gneJ7" priority="-1" shape="-3.38,-112.41 -3.23,-249.04">
        <lane id="gneE7_0" index="0" speed="13.89" length="131.49" shape="-4.97,-118.51 -4.83,-250.00"/>
    </edge>
    <edge id="gneE9" from="gneJ4" to="gneJ9" priority="-1" shape="379.58,3.15 498.44,3.15">
        <lane id="gneE9_0" index="0" speed="13.89" length="105.94" shape="383.60,-1.65 489.54,-1.65"/>
        <lane id="gneE9_1" index="1" speed="13.89" length="105.94" shape="383.60,1.55 489.54,1.55"/>
    </edge>

    <!-- <tlLogic id="gneJ00" type="static" programID="0" offset="0">
        <phase duration="14" state="rrrGrrrG" minDur="10" maxDur="25"/>
        <phase duration="2"  state="rrryrrry"/>
        <phase duration="56" state="rrGrrrGr" minDur="24" maxDur="100"/>
        <phase duration="2"  state="rryrrryr"/>
        <phase duration="13" state="rGrrrGrr" minDur="10" maxDur="25"/>
        <phase duration="2"  state="ryrrryrr"/>
        <phase duration="27" state="GrrrGrrr" minDur="24" maxDur="100"/>
        <phase duration="2"  state="yrrryrrr"/>
    </tlLogic>
    <tlLogic id="gneJ9" type="static" programID="0" offset="39">
        <phase duration="14" state="rrrGrrrG" minDur="10" maxDur="25"/>
        <phase duration="2"  state="rrryrrry"/>
        <phase duration="56" state="rrGrrrGr" minDur="24" maxDur="100"/>
        <phase duration="2"  state="rryrrryr"/>
        <phase duration="13" state="rGrrrGrr" minDur="10" maxDur="25"/>
        <phase duration="2"  state="ryrrryrr"/>
        <phase duration="27" state="GrrrGrrr" minDur="24" maxDur="100"/>
        <phase duration="2"  state="yrrryrrr"/>
        
    </tlLogic> -->
  
    <tlLogic id="gneJ00" type="static" programID="0" offset="0">
        <phase duration="14" state="rrrGrrrG"/>
        <phase duration="2"  state="rrryrrry"/>
        <phase duration="56" state="rrGrrrGr"/>
        <phase duration="2"  state="rryrrryr"/>
        <phase duration="13" state="rGrrrGrr"/>
        <phase duration="2"  state="ryrrryrr"/>
        <phase duration="27" state="GrrrGrrr"/>
        <phase duration="2"  state="yrrryrrr"/>
    </tlLogic>
    <tlLogic id="gneJ9" type="static" programID="0" offset="39">
        <phase duration="14" state="rrrGrrrG"/>
        <phase duration="2"  state="rrryrrry"/>
        <phase duration="56" state="rrGrrrGr"/>
        <phase duration="2"  state="rryrrryr"/>
        <phase duration="13" state="rGrrrGrr"/>
        <phase duration="2"  state="ryrrryrr"/>
        <phase duration="27" state="GrrrGrrr"/>
        <phase duration="2"  state="yrrryrrr"/>
        
    </tlLogic>

    <junction id="gneJ0" type="priority" x="0.00" y="120.00" incLanes="-gneE5_0 gneE0_0" intLanes=":gneJ0_0_0 :gneJ0_0_1 :gneJ0_2_0" shape="-6.46,121.73 3.22,121.74 3.20,113.73 -6.40,113.73">
        <request index="0" response="000" foes="000" cont="0"/>
        <request index="1" response="000" foes="000" cont="0"/>
        <request index="2" response="000" foes="000" cont="0"/>
    </junction>
    <junction id="gneJ00" type="traffic_light" x="0.00" y="0.00" incLanes="-gneE0_0 -gneE0_1 -gneE1_0 -gneE1_1 -gneE2_0 -gneE2_1 -gneE3_0 -gneE3_1" intLanes=":gneJ00_0_0 :gneJ00_1_0 :gneJ00_2_0 :gneJ00_3_0 :gneJ00_4_0 :gneJ00_5_0 :gneJ00_6_0 :gneJ00_7_0" shape="-6.40,10.40 3.20,10.40 7.20,6.40 7.20,-3.20 3.04,-7.20 -6.46,-7.20 -10.46,-3.19 -10.45,6.35">
        <request index="0" response="11001100" foes="11101100" cont="0"/>
        <request index="1" response="11011100" foes="11011100" cont="0"/>
        <request index="2" response="00000000" foes="10110011" cont="0"/>
        <request index="3" response="01000000" foes="01110011" cont="0"/>
        <request index="4" response="11001100" foes="11001110" cont="0"/>
        <request index="5" response="11001101" foes="11001101" cont="0"/>
        <request index="6" response="00000000" foes="00111011" cont="0"/>
        <request index="7" response="00000100" foes="00110111" cont="0"/>
    </junction>
    <junction id="gneJ1" type="priority" x="120.00" y="0.00" incLanes="-gneE4_0 gneE1_0" intLanes=":gneJ1_0_0 :gneJ1_0_1 :gneJ1_2_0" shape="121.68,6.42 121.68,-3.14 113.68,-3.20 113.68,6.40">
        <request index="0" response="000" foes="000" cont="0"/>
        <request index="1" response="000" foes="000" cont="0"/>
        <request index="2" response="000" foes="000" cont="0"/>
    </junction>
    <junction id="gneJ10" type="priority" x="500.00" y="120.00" incLanes="-gneE13_0 gneE10_0" intLanes=":gneJ10_0_0 :gneJ10_0_1 :gneJ10_2_0" shape="493.68,124.00 503.20,124.00 503.20,116.00 493.60,116.00">
        <request index="0" response="000" foes="000" cont="0"/>
        <request index="1" response="000" foes="000" cont="0"/>
        <request index="2" response="000" foes="000" cont="0"/>
    </junction>
    <junction id="gneJ11" type="priority" x="620.00" y="0.00" incLanes="-gneE14_0 gneE11_0" intLanes=":gneJ11_0_0 :gneJ11_0_1 :gneJ11_2_0" shape="624.00,6.40 624.00,-3.20 616.00,-3.20 616.00,6.40">
        <request index="0" response="000" foes="000" cont="0"/>
        <request index="1" response="000" foes="000" cont="0"/>
        <request index="2" response="000" foes="000" cont="0"/>
    </junction>
    <junction id="gneJ12" type="priority" x="500.00" y="-120.00" incLanes="gneE12_0 -gneE16_0" intLanes=":gneJ12_0_0 :gneJ12_1_0 :gneJ12_1_1" shape="493.54,-114.05 503.20,-114.05 503.20,-122.05 493.51,-122.06">
        <request index="0" response="000" foes="000" cont="0"/>
        <request index="1" response="000" foes="000" cont="0"/>
        <request index="2" response="000" foes="000" cont="0"/>
    </junction>
    <junction id="gneJ13" type="dead_end" x="500.00" y="250.00" incLanes="gneE13_0" intLanes="" shape="496.88,250.00 503.20,250.00 500.00,250.00"/>
    <junction id="gneJ14" type="dead_end" x="750.00" y="0.00" incLanes="gneE14_0" intLanes="" shape="750.00,3.17 750.00,-3.20 750.00,0.00"/>
    <junction id="gneJ16" type="dead_end" x="500.00" y="-250.00" incLanes="gneE16_0" intLanes="" shape="500.00,-250.00 493.53,-250.00 496.73,-250.00"/>
    <junction id="gneJ2" type="priority" x="-0.00" y="-120.00" incLanes="gneE2_0 -gneE7_0" intLanes=":gneJ2_0_0 :gneJ2_1_0 :gneJ2_1_1" shape="-6.51,-110.50 3.17,-110.48 3.14,-118.50 -6.57,-118.51">
        <request index="0" response="000" foes="000" cont="0"/>
        <request index="1" response="000" foes="000" cont="0"/>
        <request index="2" response="000" foes="000" cont="0"/>
    </junction>
    <junction id="gneJ3" type="priority" x="-120.00" y="3.23" incLanes="gneE3_0 -gneE6_0" intLanes=":gneJ3_0_0 :gneJ3_1_0 :gneJ3_1_1" shape="-116.36,6.43 -116.36,-3.17 -124.36,-3.11 -124.36,6.48">
        <request index="0" response="000" foes="000" cont="0"/>
        <request index="1" response="000" foes="000" cont="0"/>
        <request index="2" response="000" foes="000" cont="0"/>
    </junction>
    <junction id="gneJ4" type="priority" x="380.00" y="0.00" incLanes="-gneE9_0 gneE4_0" intLanes=":gneJ4_0_0 :gneJ4_1_0 :gneJ4_1_1" shape="383.60,6.35 383.60,-3.25 375.60,-3.31 375.60,6.35">
        <request index="0" response="000" foes="000" cont="0"/>
        <request index="1" response="000" foes="000" cont="0"/>
        <request index="2" response="000" foes="000" cont="0"/>
    </junction>
    <junction id="gneJ5" type="dead_end" x="0.00" y="250.00" incLanes="gneE5_0" intLanes="" shape="-6.59,249.99 3.20,250.00 0.00,250.00"/>
    <junction id="gneJ6" type="dead_end" x="-250.00" y="3.23" incLanes="gneE6_0" intLanes="" shape="-250.00,0.09 -250.00,6.51 -250.00,3.31"/>
    <junction id="gneJ7" type="dead_end" x="-3.23" y="-250.00" incLanes="gneE7_0" intLanes="" shape="3.02,-250.01 -6.43,-250.00 -3.23,-250.00"/>
    <junction id="gneJ9" type="traffic_light" x="500.00" y="0.00" incLanes="-gneE10_0 -gneE10_1 -gneE11_0 -gneE11_1 -gneE12_0 -gneE12_1 gneE9_0 gneE9_1" intLanes=":gneJ9_0_0 :gneJ9_1_0 :gneJ9_2_0 :gneJ9_3_0 :gneJ9_4_0 :gneJ9_5_0 :gneJ9_6_0 :gneJ9_7_0" shape="493.60,10.36 503.20,10.36 507.20,6.36 507.20,-3.20 503.20,-7.42 493.54,-7.42 489.54,-3.25 489.54,6.34">
        <request index="0" response="00000000" foes="11101100" cont="0"/>
        <request index="1" response="00010000" foes="11011100" cont="0"/>
        <request index="2" response="00110011" foes="10110011" cont="0"/>
        <request index="3" response="01110011" foes="01110011" cont="0"/>
        <request index="4" response="00000000" foes="11001110" cont="0"/>
        <request index="5" response="00000001" foes="11001101" cont="0"/>
        <request index="6" response="00110011" foes="00111011" cont="0"/>
        <request index="7" response="00110111" foes="00110111" cont="0"/>
    </junction>

    <connection from="-gneE0" to="gneE2" fromLane="0" toLane="0" via=":gneJ00_0_0" tl="gneJ00" linkIndex="0" dir="s" state="o"/>
    <connection from="-gneE0" to="gneE1" fromLane="1" toLane="0" via=":gneJ00_1_0" tl="gneJ00" linkIndex="1" dir="l" state="o"/>
    <connection from="-gneE1" to="gneE3" fromLane="0" toLane="0" via=":gneJ00_2_0" tl="gneJ00" linkIndex="2" dir="s" state="O"/>
    <connection from="-gneE1" to="gneE2" fromLane="1" toLane="0" via=":gneJ00_3_0" tl="gneJ00" linkIndex="3" dir="l" state="o"/>
    <connection from="-gneE10" to="gneE12" fromLane="0" toLane="0" via=":gneJ9_0_0" tl="gneJ9" linkIndex="0" dir="s" state="O"/>
    <connection from="-gneE10" to="gneE11" fromLane="1" toLane="0" via=":gneJ9_1_0" tl="gneJ9" linkIndex="1" dir="l" state="o"/>
    <connection from="-gneE11" to="-gneE9" fromLane="0" toLane="0" via=":gneJ9_2_0" tl="gneJ9" linkIndex="2" dir="s" state="o"/>
    <connection from="-gneE11" to="gneE12" fromLane="1" toLane="0" via=":gneJ9_3_0" tl="gneJ9" linkIndex="3" dir="l" state="o"/>
    <connection from="-gneE12" to="gneE10" fromLane="0" toLane="0" via=":gneJ9_4_0" tl="gneJ9" linkIndex="4" dir="s" state="O"/>
    <connection from="-gneE12" to="-gneE9" fromLane="1" toLane="0" via=":gneJ9_5_0" tl="gneJ9" linkIndex="5" dir="l" state="o"/>
    <connection from="-gneE13" to="-gneE10" fromLane="0" toLane="0" via=":gneJ10_0_0" dir="s" state="M"/>
    <connection from="-gneE13" to="-gneE10" fromLane="0" toLane="1" via=":gneJ10_0_1" dir="s" state="M"/>
    <connection from="-gneE14" to="-gneE11" fromLane="0" toLane="0" via=":gneJ11_0_0" dir="s" state="M"/>
    <connection from="-gneE14" to="-gneE11" fromLane="0" toLane="1" via=":gneJ11_0_1" dir="s" state="M"/>
    <connection from="-gneE16" to="-gneE12" fromLane="0" toLane="0" via=":gneJ12_1_0" dir="s" state="M"/>
    <connection from="-gneE16" to="-gneE12" fromLane="0" toLane="1" via=":gneJ12_1_1" dir="s" state="M"/>
    <connection from="-gneE2" to="gneE0" fromLane="0" toLane="0" via=":gneJ00_4_0" tl="gneJ00" linkIndex="4" dir="s" state="o"/>
    <connection from="-gneE2" to="gneE3" fromLane="1" toLane="0" via=":gneJ00_5_0" tl="gneJ00" linkIndex="5" dir="l" state="o"/>
    <connection from="-gneE3" to="gneE1" fromLane="0" toLane="0" via=":gneJ00_6_0" tl="gneJ00" linkIndex="6" dir="s" state="O"/>
    <connection from="-gneE3" to="gneE0" fromLane="1" toLane="0" via=":gneJ00_7_0" tl="gneJ00" linkIndex="7" dir="l" state="o"/>
    <connection from="-gneE4" to="-gneE1" fromLane="0" toLane="0" via=":gneJ1_0_0" dir="s" state="M"/>
    <connection from="-gneE4" to="-gneE1" fromLane="0" toLane="1" via=":gneJ1_0_1" dir="s" state="M"/>
    <connection from="-gneE5" to="-gneE0" fromLane="0" toLane="0" via=":gneJ0_0_0" dir="s" state="M"/>
    <connection from="-gneE5" to="-gneE0" fromLane="0" toLane="1" via=":gneJ0_0_1" dir="s" state="M"/>
    <connection from="-gneE6" to="-gneE3" fromLane="0" toLane="0" via=":gneJ3_1_0" dir="s" state="M"/>
    <connection from="-gneE6" to="-gneE3" fromLane="0" toLane="1" via=":gneJ3_1_1" dir="s" state="M"/>
    <connection from="-gneE7" to="-gneE2" fromLane="0" toLane="0" via=":gneJ2_1_0" dir="s" state="M"/>
    <connection from="-gneE7" to="-gneE2" fromLane="0" toLane="1" via=":gneJ2_1_1" dir="s" state="M"/>
    <connection from="-gneE9" to="-gneE4" fromLane="0" toLane="0" via=":gneJ4_0_0" dir="s" state="M"/>
    <connection from="gneE0" to="gneE5" fromLane="0" toLane="0" via=":gneJ0_2_0" dir="s" state="M"/>
    <connection from="gneE1" to="gneE4" fromLane="0" toLane="0" via=":gneJ1_2_0" dir="s" state="M"/>
    <connection from="gneE10" to="gneE13" fromLane="0" toLane="0" via=":gneJ10_2_0" dir="s" state="M"/>
    <connection from="gneE11" to="gneE14" fromLane="0" toLane="0" via=":gneJ11_2_0" dir="s" state="M"/>
    <connection from="gneE12" to="gneE16" fromLane="0" toLane="0" via=":gneJ12_0_0" dir="s" state="M"/>
    <connection from="gneE2" to="gneE7" fromLane="0" toLane="0" via=":gneJ2_0_0" dir="s" state="M"/>
    <connection from="gneE3" to="gneE6" fromLane="0" toLane="0" via=":gneJ3_0_0" dir="s" state="M"/>
    <connection from="gneE4" to="gneE9" fromLane="0" toLane="0" via=":gneJ4_1_0" dir="s" state="M"/>
    <connection from="gneE4" to="gneE9" fromLane="0" toLane="1" via=":gneJ4_1_1" dir="s" state="M"/>
    <connection from="gneE9" to="gneE11" fromLane="0" toLane="0" via=":gneJ9_6_0" tl="gneJ9" linkIndex="6" dir="s" state="o"/>
    <connection from="gneE9" to="gneE10" fromLane="1" toLane="0" via=":gneJ9_7_0" tl="gneJ9" linkIndex="7" dir="l" state="o"/>

    <connection from=":gneJ0_0" to="-gneE0" fromLane="0" toLane="0" dir="s" state="M"/>
    <connection from=":gneJ0_0" to="-gneE0" fromLane="1" toLane="1" dir="s" state="M"/>
    <connection from=":gneJ0_2" to="gneE5" fromLane="0" toLane="0" dir="s" state="M"/>
    <connection from=":gneJ00_0" to="gneE2" fromLane="0" toLane="0" dir="s" state="M"/>
    <connection from=":gneJ00_1" to="gneE1" fromLane="0" toLane="0" dir="l" state="M"/>
    <connection from=":gneJ00_2" to="gneE3" fromLane="0" toLane="0" dir="s" state="M"/>
    <connection from=":gneJ00_3" to="gneE2" fromLane="0" toLane="0" dir="l" state="M"/>
    <connection from=":gneJ00_4" to="gneE0" fromLane="0" toLane="0" dir="s" state="M"/>
    <connection from=":gneJ00_5" to="gneE3" fromLane="0" toLane="0" dir="l" state="M"/>
    <connection from=":gneJ00_6" to="gneE1" fromLane="0" toLane="0" dir="s" state="M"/>
    <connection from=":gneJ00_7" to="gneE0" fromLane="0" toLane="0" dir="l" state="M"/>
    <connection from=":gneJ1_0" to="-gneE1" fromLane="0" toLane="0" dir="s" state="M"/>
    <connection from=":gneJ1_0" to="-gneE1" fromLane="1" toLane="1" dir="s" state="M"/>
    <connection from=":gneJ1_2" to="gneE4" fromLane="0" toLane="0" dir="s" state="M"/>
    <connection from=":gneJ10_0" to="-gneE10" fromLane="0" toLane="0" dir="s" state="M"/>
    <connection from=":gneJ10_0" to="-gneE10" fromLane="1" toLane="1" dir="s" state="M"/>
    <connection from=":gneJ10_2" to="gneE13" fromLane="0" toLane="0" dir="s" state="M"/>
    <connection from=":gneJ11_0" to="-gneE11" fromLane="0" toLane="0" dir="s" state="M"/>
    <connection from=":gneJ11_0" to="-gneE11" fromLane="1" toLane="1" dir="s" state="M"/>
    <connection from=":gneJ11_2" to="gneE14" fromLane="0" toLane="0" dir="s" state="M"/>
    <connection from=":gneJ12_0" to="gneE16" fromLane="0" toLane="0" dir="s" state="M"/>