<?xml version="1.0" encoding="UTF-8"?>

<!-- generated on 03/10/20 15:47:57 by Eclipse SUMO netedit Version 1.4.0
<configuration xmlns:xsi="http://www.w3.org/2001/XMLSchema-instance" xsi:noNamespaceSchemaLocation="http://sumo.dlr.de/xsd/netconvertConfiguration.xsd">

    <input>
        <sumo-net-file value="E:\RL-on-SUMO-master_GJW\200310\RL-on-SUMO-master\intersection.net.xml"/>
    </input>

    <output>
        <output-file value="E:\RL-on-SUMO-master_GJW\200310\RL-on-SUMO-master\intersection.net.xml"/>
    </output>

    <processing>
        <geometry.min-radius.fix.railways value="false"/>
        <geometry.max-grade.fix value="false"/>
        <offset.disable-normalization value="true"/>
        <lefthand value="false"/>
    </processing>

    <junctions>
        <no-turnarounds value="true"/>
        <junctions.corner-detail value="0"/>
        <junctions.limit-turn-speed value="-1"/>
        <rectangular-lane-cut value="false"/>
    </junctions>

    <pedestrian>
        <walkingareas value="false"/>
    </pedestrian>

    <visualisation>
        <registry-viewport value="true"/>
    </visualisation>

    <report>
        <aggregate-warnings value="5"/>
    </report>

</configuration>
-->

<net version="1.3" xmlns:xsi="http://www.w3.org/2001/XMLSchema-instance" xsi:noNamespaceSchemaLocation="http://sumo.dlr.de/xsd/net_file.xsd">

    <location netOffset="0.00,0.00" convBoundary="-100.00,-100.00,100.00,0.00" origBoundary="-10000000000.00,-10000000000.00,10000000000.00,10000000000.00" projParameter="!"/>

    <edge id=":gneJ00_0" function="internal">
        <lane id=":gneJ00_0_0" index="0" speed="13.89" length="14.40" shape="7.20,4.80 -7.20,4.80"/>
    </edge>
    <edge id=":gneJ00_1" function="internal">
        <lane id=":gneJ00_1_0" index="0" speed="13.89" length="5.93" shape="7.20,1.60 3.35,1.05 1.60,0.00"/>
    </edge>
    <edge id=":gneJ00_4" function="internal">
        <lane id=":gneJ00_4_0" index="0" speed="13.89" length="8.26" shape="1.60,0.00 0.60,-0.60 -1.05,-3.35 -1.60,-7.20"/>
    </edge>
    <edge id=":gneJ00_2" function="internal">
        <lane id=":gneJ00_2_0" index="0" speed="13.89" length="14.19" shape="1.60,-7.20 1.05,-3.35 -0.60,-0.60 -3.35,1.05 -7.20,1.60"/>
    </edge>
    <edge id=":gneJ00_3" function="internal">
        <lane id=":gneJ00_3_0" index="0" speed="13.89" length="14.40" shape="-7.20,-1.60 7.20,-1.60"/>
    </edge>
    <edge id=":gneJ1_0" function="internal">
        <lane id=":gneJ1_0_0" index="0" speed="13.89" length="8.40" shape="24.00,1.60 21.54,2.10 20.00,3.20 18.46,4.30 16.00,4.80"/>
        <lane id=":gneJ1_0_1" index="1" speed="13.89" length="8.40" shape="24.00,1.60 16.00,1.60"/>
    </edge>
    <edge id=":gneJ1_2" function="internal">
        <lane id=":gneJ1_2_0" index="0" speed="13.89" length="8.40" shape="16.00,-1.60 18.46,-2.10 20.00,-3.20 21.54,-4.30 24.00,-4.80"/>
        <lane id=":gneJ1_2_1" index="1" speed="13.89" length="8.40" shape="16.00,-1.60 24.00,-1.60"/>
    </edge>

    <edge id="-gneE1" from="gneJ1" to="gneJ00" priority="1">
        <lane id="-gneE1_0" index="0" speed="13.89" length="8.80" shape="16.00,4.80 7.20,4.80"/>
        <lane id="-gneE1_1" index="1" speed="13.89" length="8.80" shape="16.00,1.60 7.20,1.60"/>
    </edge>
    <edge id="-gneE2" from="gneJ2" to="gneJ00" priority="1">
        <lane id="-gneE2_0" index="0" speed="13.89" length="92.80" shape="1.60,-100.00 1.60,-7.20"/>
    </edge>
    <edge id="-gneE3" from="gneJ3" to="gneJ00" priority="1">
        <lane id="-gneE3_0" index="0" speed="13.89" length="92.80" shape="-100.00,-1.60 -7.20,-1.60"/>
    </edge>
    <edge id="-gneE6" from="gneJ6" to="gneJ1" priority="-1">
        <lane id="-gneE6_0" index="0" speed="13.89" length="76.00" shape="100.00,1.60 24.00,1.60"/>
    </edge>
    <edge id="gneE1" from="gneJ00" to="gneJ1" priority="1">
        <lane id="gneE1_0" index="0" speed="13.89" length="8.80" shape="7.20,-1.60 16.00,-1.60"/>
    </edge>
    <edge id="gneE2" from="gneJ00" to="gneJ2" priority="1">
        <lane id="gneE2_0" index="0" speed="13.89" length="92.80" shape="-1.60,-7.20 -1.60,-100.00"/>
    </edge>
    <edge id="gneE3" from="gneJ00" to="gneJ3" priority="1">
        <lane id="gneE3_0" index="0" speed="13.89" length="92.80" shape="-7.20,4.80 -100.00,4.80"/>
        <lane id="gneE3_1" index="1" speed="13.89" length="92.80" shape="-7.20,1.60 -100.00,1.60"/>
    </edge>
    <edge id="gneE6" from="gneJ1" to="gneJ6" priority="-1">
        <lane id="gneE6_0" index="0" speed="13.89" length="76.00" shape="24.00,-4.80 100.00,-4.80"/>
        <lane id="gneE6_1" index="1" speed="13.89" length="76.00" shape="24.00,-1.60 100.00,-1.60"/>
    </edge>

    <tlLogic id="gneJ00" type="static" programID="0" offset="0">
        <phase duration="97" state="GgrG"/>
        <phase duration="13" state="rrGr"/>
    </tlLogic>

    <junction id="gneJ00" type="traffic_light" x="0.00" y="0.00" incLanes="-gneE1_0 -gneE1_1 -gneE2_0 -gneE3_0" intLanes=":gneJ00_0_0 :gneJ00_4_0 :gneJ00_2_0 :gneJ00_3_0" shape="7.20,6.40 7.20,-3.20 3.20,-7.20 -3.20,-7.20 -7.20,-3.20 -7.20,6.40">
        <request index="0" response="0000" foes="0000" cont="0"/>
        <request index="1" response="1000" foes="1100" cont="1"/>
        <request index="2" response="1010" foes="1010" cont="0"/>
        <request index="3" response="0000" foes="0110" cont="0"/>
    </junction>
    <junction id="gneJ1" type="priority" x="20.00" y="0.00" incLanes="-gneE6_0 gneE1_0" intLanes=":gneJ1_0_0 :gneJ1_0_1 :gneJ1_2_0 :gneJ1_2_1" shape="24.00,3.20 24.00,-6.40 16.00,-3.20 16.00,6.40">
        <request index="0" response="0000" foes="0000" cont="0"/>
        <request index="1" response="0000" foes="0000" cont="0"/>
        <request index="2" response="0000" foes="0000" cont="0"/>
        <request index="3" response="0000" foes="0000" cont="0"/>
    </junction>
    <junction id="gneJ2" type="dead_end" x="0.00" y="-100.00" incLanes="gneE2_0" intLanes="" shape="0.00,-100.00 -3.20,-100.00 0.00,-100.00"/>
    <junction id="gneJ3" type="dead_end" x="-100.00" y="0.00" incLanes="gneE3_0 gneE3_1" intLanes="" shape="-100.00,0.00 -100.00,6.40 -100.00,0.00"/>
    <junction id="gneJ6" type="dead_end" x="100.00" y="0.00" incLanes="gneE6_0 gneE6_1" intLanes="" shape="100.00,0.00 100.00,-6.40 100.00,0.00"/>

    <junction id=":gneJ00_4_0" type="internal" x="1.60" y="0.00" incLanes=":gneJ00_1_0 -gneE3_0" intLanes=":gneJ00_2_0 :gneJ00_3_0"/>

    <connection from="-gneE1" to="gneE3" fromLane="0" toLane="0" via=":gneJ00_0_0" tl="gneJ00" linkIndex="0" dir="s" state="O"/>
    <connection from="-gneE1" to="gneE2" fromLane="1" toLane="0" via=":gneJ00_1_0" tl="gneJ00" linkIndex="1" dir="l" state="o"/>
    <connection from="-gneE2" to="gneE3" fromLane="0" toLane="1" via=":gneJ00_2_0" tl="gneJ00" linkIndex="2" dir="l" state="o"/>
    <connection from="-gneE3" to="gneE1" fromLane="0" toLane="0" via=":gneJ00_3_0" tl="gneJ00" linkIndex="3" dir="s" state="O"/>
    <connection from="-gneE6" to="-gneE1" fromLane="0" toLane="0" via=":gneJ1_0_0" dir="s" state="M"/>
    <connection from="-gneE6" to="-gneE1" fromLane="0" toLane="1" via=":gneJ1_0_1" dir="s" state="M"/>
    <connection from="gneE1" to="gneE6" fromLane="0" toLane="0" via=":gneJ1_2_0" dir="s" state="M"/>
    <connection from="gneE1" to="gneE6" fromLane="0" toLane="1" via=":gneJ1_2_1" dir="s" state="M"/>

    <connection from=":gneJ00_0" to="gneE3" fromLane="0" toLane="0" dir="s" state="M"/>
    <connection from=":gneJ00_1" to="gneE2" fromLane="0" toLane="0" via=":gneJ00_4_0" dir="l" state="m"/>
    <connection from=":gneJ00_4" to="gneE2" fromLane="0" toLane="0" dir="l" state="M"/>
    <connection from=":gneJ00_2" to="gneE3" fromLane="0" toLane="1" dir="l" state="M"/>
    <connection from=":gneJ00_3" to="gneE1" fromLane="0" toLane="0" dir="s" state="M"/>
    <connection from=":gneJ1_0" to="-gneE1" fromLane="0" toLane="0" dir="s" state="M"/>
    <connection from=":gneJ1_0" to="-gneE1" fromLane="1" toLane="1" dir="s" state="M"/>
    <connection from=":gneJ1_2" to="gneE6" fromLane="0" toLane="0" dir="s" state="M"/>
    <connection from=":gneJ1_2" to="gneE6" fromLane="1" toLane="1" dir="s" state="M"/>

</net>
