<?xml version="1.0" encoding="UTF-8"?>

<!-- generated on 03/11/20 13:21:23 by Eclipse SUMO netedit Version 1.4.0
<configuration xmlns:xsi="http://www.w3.org/2001/XMLSchema-instance" xsi:noNamespaceSchemaLocation="http://sumo.dlr.de/xsd/netconvertConfiguration.xsd">

    <input>
        <sumo-net-file value="E:\RL-on-SUMO-master_GJW\200310\case02\intersection.net.xml"/>
    </input>

    <output>
        <output-file value="E:\RL-on-SUMO-master_GJW\200310\case02\intersection.net.xml"/>
    </output>

    <processing>
        <geometry.min-radius.fix.railways value="false"/>
        <geometry.max-grade.fix value="false"/>
        <offset.disable-normalization value="true"/>
        <lefthand value="false"/>
    </processing>

    <junctions>
        <no-turnarounds value="true"/>
        <junctions.corner-detail value="0"/>
        <junctions.limit-turn-speed value="-1"/>
        <rectangular-lane-cut value="false"/>
    </junctions>

    <pedestrian>
        <walkingareas value="false"/>
    </pedestrian>

    <visualisation>
        <registry-viewport value="true"/>
    </visualisation>

    <report>
        <aggregate-warnings value="5"/>
    </report>

</configuration>
-->

<net version="1.3" xmlns:xsi="http://www.w3.org/2001/XMLSchema-instance" xsi:noNamespaceSchemaLocation="http://sumo.dlr.de/xsd/net_file.xsd">

    <location netOffset="0.00,0.00" convBoundary="-101.33,-100.23,100.00,100.36" origBoundary="-10000000000.00,-10000000000.00,10000000000.00,10000000000.00" projParameter="!"/>

    <edge id=":gneJ0_0" function="internal">
        <lane id=":gneJ0_0_0" index="0" speed="13.89" length="8.42" shape="-4.85,33.59 -4.80,25.59"/>
        <lane id=":gneJ0_0_1" index="1" speed="13.89" length="8.42" shape="-4.85,33.59 -4.34,31.12 -3.23,29.59 -2.11,28.05 -1.60,25.59"/>
    </edge>
    <edge id=":gneJ0_2" function="internal">
        <lane id=":gneJ0_2_0" index="0" speed="13.89" length="8.42" shape="1.60,25.59 1.57,33.59"/>
        <lane id=":gneJ0_2_1" index="1" speed="13.89" length="8.42" shape="1.60,25.59 1.10,28.05 -0.02,29.59 -1.13,31.12 -1.63,33.59"/>
    </edge>
    <edge id=":gneJ00_0" function="internal">
        <lane id=":gneJ00_0_0" index="0" speed="13.89" length="17.60" shape="-4.80,10.40 -4.89,-7.20"/>
    </edge>
    <edge id=":gneJ00_1" function="internal">
        <lane id=":gneJ00_1_0" index="0" speed="13.89" length="16.85" shape="-1.60,10.40 -1.05,5.15 0.60,1.40 3.35,-0.85 7.20,-1.60"/>
    </edge>
    <edge id=":gneJ00_2" function="internal">
        <lane id=":gneJ00_2_0" index="0" speed="13.89" length="17.66" shape="7.20,4.80 -10.46,4.76"/>
    </edge>
    <edge id=":gneJ00_3" function="internal">
        <lane id=":gneJ00_3_0" index="0" speed="13.89" length="16.92" shape="7.20,1.60 1.92,1.05 -1.85,-0.60 -4.12,-3.35 -4.89,-7.20"/>
    </edge>
    <edge id=":gneJ00_4" function="internal">
        <lane id=":gneJ00_4_0" index="0" speed="13.89" length="17.63" shape="1.45,-7.23 1.60,10.40"/>
    </edge>
    <edge id=":gneJ00_5" function="internal">
        <lane id=":gneJ00_5_0" index="0" speed="13.89" length="16.74" shape="-1.75,-7.21 -2.31,-1.98 -3.94,1.76 -6.66,4.00 -10.46,4.76"/>
    </edge>
    <edge id=":gneJ00_6" function="internal">
        <lane id=":gneJ00_6_0" index="0" speed="13.89" length="17.67" shape="-10.47,-1.59 7.20,-1.60"/>
    </edge>
    <edge id=":gneJ00_7" function="internal">
        <lane id=":gneJ00_7_0" index="0" speed="13.89" length="16.90" shape="-10.46,1.61 -5.19,2.16 -1.42,3.81 0.85,6.55 1.60,10.40"/>
    </edge>
    <edge id=":gneJ1_0" function="internal">
        <lane id=":gneJ1_0_0" index="0" speed="13.89" length="8.41" shape="35.12,4.82 27.11,4.81"/>
        <lane id=":gneJ1_0_1" index="1" speed="13.89" length="8.41" shape="35.12,4.82 32.65,4.32 31.11,3.22 29.57,2.11 27.11,1.61"/>
    </edge>
    <edge id=":gneJ1_2" function="internal">
        <lane id=":gneJ1_2_0" index="0" speed="13.89" length="8.40" shape="27.11,-1.59 35.12,-1.64"/>
        <lane id=":gneJ1_2_1" index="1" speed="13.89" length="8.40" shape="27.11,-1.59 29.57,-1.10 31.12,-0.01 32.66,1.07 35.12,1.56"/>
    </edge>
    <edge id=":gneJ2_0" function="internal">
        <lane id=":gneJ2_0_0" index="0" speed="13.89" length="8.44" shape="-4.96,-22.38 -4.92,-30.40"/>
        <lane id=":gneJ2_0_1" index="1" speed="13.89" length="8.44" shape="-4.96,-22.38 -4.46,-24.85 -3.35,-26.39 -2.23,-27.93 -1.72,-30.40"/>
    </edge>
    <edge id=":gneJ2_2" function="internal">
        <lane id=":gneJ2_2_0" index="0" speed="13.89" length="8.44" shape="1.47,-30.40 1.50,-22.36"/>
        <lane id=":gneJ2_2_1" index="1" speed="13.89" length="8.44" shape="1.47,-30.40 0.98,-27.93 -0.11,-26.38 -1.20,-24.84 -1.70,-22.37"/>
    </edge>
    <edge id=":gneJ3_0" function="internal">
        <lane id=":gneJ3_0_0" index="0" speed="13.89" length="8.39" shape="-31.88,4.82 -39.90,4.93"/>
        <lane id=":gneJ3_0_1" index="1" speed="13.89" length="8.39" shape="-31.88,4.82 -34.34,4.34 -35.89,3.28 -37.44,2.21 -39.90,1.73"/>
    </edge>
    <edge id=":gneJ3_2" function="internal">
        <lane id=":gneJ3_2_0" index="0" speed="13.89" length="8.40" shape="-39.90,-1.52 -31.89,-1.58"/>
        <lane id=":gneJ3_2_1" index="1" speed="13.89" length="8.40" shape="-39.90,-1.52 -37.43,-1.03 -35.89,0.05 -34.35,1.13 -31.88,1.62"/>
    </edge>

    <edge id="-gneE0" from="gneJ0" to="gneJ00" priority="1">
        <lane id="-gneE0_0" index="0" speed="13.89" length="15.18" shape="-4.80,25.59 -4.80,10.40"/>
        <lane id="-gneE0_1" index="1" speed="13.89" length="15.18" shape="-1.60,25.59 -1.60,10.40"/>
    </edge>
    <edge id="-gneE1" from="gneJ1" to="gneJ00" priority="1">
        <lane id="-gneE1_0" index="0" speed="13.89" length="19.91" shape="27.11,4.81 7.20,4.80"/>
        <lane id="-gneE1_1" index="1" speed="13.89" length="19.91" shape="27.11,1.61 7.20,1.60"/>
    </edge>
    <edge id="-gneE2" from="gneJ2" to="gneJ00" priority="1" shape="-3.29,-26.37 -3.37,0.08">
        <lane id="-gneE2_0" index="0" speed="13.89" length="15.14" shape="1.50,-22.36 1.45,-7.23"/>
        <lane id="-gneE2_1" index="1" speed="13.89" length="15.14" shape="-1.70,-22.37 -1.75,-7.21"/>
    </edge>
    <edge id="-gneE3" from="gneJ3" to="gneJ00" priority="1" shape="-33.72,3.22 -6.31,3.21">
        <lane id="-gneE3_0" index="0" speed="13.89" length="21.42" shape="-31.89,-1.58 -10.47,-1.59"/>
        <lane id="-gneE3_1" index="1" speed="13.89" length="21.42" shape="-31.88,1.62 -10.46,1.61"/>
    </edge>
    <edge id="-gneE4" from="gneJ4" to="gneJ1" priority="-1" shape="99.62,3.15 27.67,3.23">
        <lane id="-gneE4_0" index="0" speed="13.89" length="64.89" shape="100.01,4.75 35.12,4.82"/>
    </edge>
    <edge id="-gneE5" from="gneJ5" to="gneJ0" priority="-1" shape="-3.28,100.36 -3.25,25.87">
        <lane id="-gneE5_0" index="0" speed="13.89" length="66.41" shape="-4.88,100.00 -4.85,33.59"/>
    </edge>
    <edge id="-gneE6" from="gneJ6" to="gneJ3" priority="-1" spreadType="center" shape="-99.69,-1.51 -33.94,-1.52">
        <lane id="-gneE6_0" index="0" speed="13.89" length="60.10" shape="-100.00,-1.51 -39.90,-1.52"/>
    </edge>
    <edge id="-gneE7" from="gneJ7" to="gneJ2" priority="-1" shape="-0.16,-100.07 -0.13,-26.09">
        <lane id="-gneE7_0" index="0" speed="13.89" length="69.83" shape="1.44,-100.23 1.47,-30.40"/>
    </edge>
    <edge id="gneE0" from="gneJ00" to="gneJ0" priority="1">
        <lane id="gneE0_0" index="0" speed="13.89" length="15.18" shape="1.60,10.40 1.60,25.59"/>
    </edge>
    <edge id="gneE1" from="gneJ00" to="gneJ1" priority="1">
        <lane id="gneE1_0" index="0" speed="13.89" length="19.91" shape="7.20,-1.60 27.11,-1.59"/>
    </edge>
    <edge id="gneE2" from="gneJ00" to="gneJ2" priority="1" shape="-3.26,0.25 -3.38,-26.27">
        <lane id="gneE2_0" index="0" speed="13.89" length="15.18" shape="-4.89,-7.20 -4.96,-22.38"/>
    </edge>
    <edge id="gneE3" from="gneJ00" to="gneJ3" priority="1" shape="-6.25,3.15 -33.72,3.22">
        <lane id="gneE3_0" index="0" speed="13.89" length="21.43" shape="-10.46,4.76 -31.88,4.82"/>
    </edge>
    <edge id="gneE4" from="gneJ1" to="gneJ4" priority="-1" shape="30.39,3.16 99.57,3.23">
        <lane id="gneE4_0" index="0" speed="13.89" length="64.88" shape="35.12,-1.64 100.00,-1.57"/>
        <lane id="gneE4_1" index="1" speed="13.89" length="64.88" shape="35.12,1.56 100.00,1.63"/>
    </edge>
    <edge id="gneE5" from="gneJ0" to="gneJ5" priority="-1" shape="-3.23,29.17 -3.31,100.35">
        <lane id="gneE5_0" index="0" speed="13.89" length="66.41" shape="1.57,33.59 1.49,100.00"/>
        <lane id="gneE5_1" index="1" speed="13.89" length="66.41" shape="-1.63,33.59 -1.71,100.00"/>
    </edge>
    <edge id="gneE6" from="gneJ3" to="gneJ6" priority="-1" spreadType="center" shape="-38.07,3.33 -101.33,3.29">
        <lane id="gneE6_0" index="0" speed="13.89" length="60.10" shape="-39.90,4.93 -100.00,4.89"/>
        <lane id="gneE6_1" index="1" speed="13.89" length="60.10" shape="-39.90,1.73 -100.00,1.69"/>
    </edge>
    <edge id="gneE7" from="gneJ2" to="gneJ7" priority="-1" shape="-0.12,-26.44 -0.12,-99.77">
        <lane id="gneE7_0" index="0" speed="13.89" length="69.83" shape="-4.92,-30.40 -4.92,-100.23"/>
        <lane id="gneE7_1" index="1" speed="13.89" length="69.83" shape="-1.72,-30.40 -1.72,-100.23"/>
    </edge>

    <tlLogic id="gneJ00" type="static" programID="0" offset="0">
        <phase duration="14" state="rrrGrrrG"/>
        <phase duration="2" state="rrryrrry"/>
        <phase duration="56" state="rrGrrrGr"/>
        <phase duration="2" state="rryrrryr"/>
        <phase duration="13" state="rGrrrGrr"/>
        <phase duration="2" state="ryrrryrr"/>
        <phase duration="27" state="GrrrGrrr"/>
        <phase duration="2" state="yrrryrrr"/>
    </tlLogic>


    <junction id="gneJ0" type="priority" x="0.00" y="30.00" incLanes="-gneE5_0 gneE0_0" intLanes=":gneJ0_0_0 :gneJ0_0_1 :gneJ0_2_0 :gneJ0_2_1" shape="-6.45,33.58 3.17,33.59 3.20,25.59 -6.40,25.59">
        <request index="0" response="0000" foes="0000" cont="0"/>
        <request index="1" response="0000" foes="0000" cont="0"/>
        <request index="2" response="0000" foes="0000" cont="0"/>
        <request index="3" response="0000" foes="0000" cont="0"/>
    </junction>
    <junction id="gneJ00" type="traffic_light" x="0.00" y="0.00" incLanes="-gneE0_0 -gneE0_1 -gneE1_0 -gneE1_1 -gneE2_0 -gneE2_1 -gneE3_0 -gneE3_1" intLanes=":gneJ00_0_0 :gneJ00_1_0 :gneJ00_2_0 :gneJ00_3_0 :gneJ00_4_0 :gneJ00_5_0 :gneJ00_6_0 :gneJ00_7_0" shape="-6.40,10.40 3.20,10.40 7.20,6.40 7.20,-3.20 3.05,-7.23 -6.49,-7.19 -10.48,-3.19 -10.45,6.36">
        <request index="0" response="11001100" foes="11101100" cont="0"/>
        <request index="1" response="11011100" foes="11011100" cont="0"/>
        <request index="2" response="00000000" foes="10110011" cont="0"/>
        <request index="3" response="01000000" foes="01110011" cont="0"/>
        <request index="4" response="11001100" foes="11001110" cont="0"/>
        <request index="5" response="11001101" foes="11001101" cont="0"/>
        <request index="6" response="00000000" foes="00111011" cont="0"/>
        <request index="7" response="00000100" foes="00110111" cont="0"/>
    </junction>
    <junction id="gneJ1" type="priority" x="31.83" y="0.01" incLanes="-gneE4_0 gneE1_0" intLanes=":gneJ1_0_0 :gneJ1_0_1 :gneJ1_2_0 :gneJ1_2_1" shape="35.12,6.42 35.13,-3.24 27.11,-3.19 27.11,6.41">
        <request index="0" response="0000" foes="0000" cont="0"/>
        <request index="1" response="0000" foes="0000" cont="0"/>
        <request index="2" response="0000" foes="0000" cont="0"/>
        <request index="3" response="0000" foes="0000" cont="0"/>
    </junction>
    <junction id="gneJ2" type="priority" x="-0.07" y="-29.78" incLanes="gneE2_0 -gneE7_0" intLanes=":gneJ2_0_0 :gneJ2_0_1 :gneJ2_2_0 :gneJ2_2_1" shape="-6.56,-22.38 3.10,-22.35 3.07,-30.40 -6.52,-30.40">
        <request index="0" response="0000" foes="0000" cont="0"/>
        <request index="1" response="0000" foes="0000" cont="0"/>
        <request index="2" response="0000" foes="0000" cont="0"/>
        <request index="3" response="0000" foes="0000" cont="0"/>
    </junction>
    <junction id="gneJ3" type="priority" x="-33.72" y="3.22" incLanes="gneE3_0 -gneE6_0" intLanes=":gneJ3_0_0 :gneJ3_0_1 :gneJ3_2_0 :gneJ3_2_1" shape="-31.88,6.42 -31.89,-3.18 -39.90,-3.12 -39.90,6.53">
        <request index="0" response="0000" foes="0000" cont="0"/>
        <request index="1" response="0000" foes="0000" cont="0"/>
        <request index="2" response="0000" foes="0000" cont="0"/>
        <request index="3" response="0000" foes="0000" cont="0"/>
    </junction>
    <junction id="gneJ4" type="dead_end" x="100.00" y="0.00" incLanes="gneE4_0 gneE4_1" intLanes="" shape="100.00,3.15 100.01,6.35 100.00,-3.17 100.00,3.23"/>
    <junction id="gneJ5" type="dead_end" x="0.00" y="100.00" incLanes="gneE5_0 gneE5_1" intLanes="" shape="-3.28,100.00 -6.48,100.00 3.09,100.00 -3.31,100.00"/>
    <junction id="gneJ6" type="dead_end" x="-100.00" y="3.23" incLanes="gneE6_0 gneE6_1" intLanes="" shape="-100.00,0.09 -100.00,-3.11 -100.00,6.49 -100.00,0.09"/>
    <junction id="gneJ7" type="dead_end" x="-3.46" y="-100.23" incLanes="gneE7_0 gneE7_1" intLanes="" shape="-0.16,-100.23 -6.52,-100.23 -0.12,-100.23"/>

    <connection from="-gneE0" to="gneE2" fromLane="0" toLane="0" via=":gneJ00_0_0" tl="gneJ00" linkIndex="0" dir="s" state="o"/>
    <connection from="-gneE0" to="gneE1" fromLane="1" toLane="0" via=":gneJ00_1_0" tl="gneJ00" linkIndex="1" dir="l" state="o"/>
    <connection from="-gneE1" to="gneE3" fromLane="0" toLane="0" via=":gneJ00_2_0" tl="gneJ00" linkIndex="2" dir="s" state="O"/>
    <connection from="-gneE1" to="gneE2" fromLane="1" toLane="0" via=":gneJ00_3_0" tl="gneJ00" linkIndex="3" dir="l" state="o"/>
    <connection from="-gneE2" to="gneE0" fromLane="0" toLane="0" via=":gneJ00_4_0" tl="gneJ00" linkIndex="4" dir="s" state="o"/>
    <connection from="-gneE2" to="gneE3" fromLane="1" toLane="0" via=":gneJ00_5_0" tl="gneJ00" linkIndex="5" dir="l" state="o"/>
    <connection from="-gneE3" to="gneE1" fromLane="0" toLane="0" via=":gneJ00_6_0" tl="gneJ00" linkIndex="6" dir="s" state="O"/>
    <connection from="-gneE3" to="gneE0" fromLane="1" toLane="0" via=":gneJ00_7_0" tl="gneJ00" linkIndex="7" dir="l" state="o"/>
    <connection from="-gneE4" to="-gneE1" fromLane="0" toLane="0" via=":gneJ1_0_0" dir="s" state="M"/>
    <connection from="-gneE4" to="-gneE1" fromLane="0" toLane="1" via=":gneJ1_0_1" dir="s" state="M"/>
    <connection from="-gneE5" to="-gneE0" fromLane="0" toLane="0" via=":gneJ0_0_0" dir="s" state="M"/>
    <connection from="-gneE5" to="-gneE0" fromLane="0" toLane="1" via=":gneJ0_0_1" dir="s" state="M"/>
    <connection from="-gneE6" to="-gneE3" fromLane="0" toLane="0" via=":gneJ3_2_0" dir="s" state="M"/>
    <connection from="-gneE6" to="-gneE3" fromLane="0" toLane="1" via=":gneJ3_2_1" dir="s" state="M"/>
    <connection from="-gneE7" to="-gneE2" fromLane="0" toLane="0" via=":gneJ2_2_0" dir="s" state="M"/>
    <connection from="-gneE7" to="-gneE2" fromLane="0" toLane="1" via=":gneJ2_2_1" dir="s" state="M"/>
    <connection from="gneE0" to="gneE5" fromLane="0" toLane="0" via=":gneJ0_2_0" dir="s" state="M"/>
    <connection from="gneE0" to="gneE5" fromLane="0" toLane="1" via=":gneJ0_2_1" dir="s" state="M"/>
    <connection from="gneE1" to="gneE4" fromLane="0" toLane="0" via=":gneJ1_2_0" dir="s" state="M"/>
    <connection from="gneE1" to="gneE4" fromLane="0" toLane="1" via=":gneJ1_2_1" dir="s" state="M"/>
    <connection from="gneE2" to="gneE7" fromLane="0" toLane="0" via=":gneJ2_0_0" dir="s" state="M"/>
    <connection from="gneE2" to="gneE7" fromLane="0" toLane="1" via=":gneJ2_0_1" dir="s" state="M"/>
    <connection from="gneE3" to="gneE6" fromLane="0" toLane="0" via=":gneJ3_0_0" dir="s" state="M"/>
    <connection from="gneE3" to="gneE6" fromLane="0" toLane="1" via=":gneJ3_0_1" dir="s" state="M"/>

    <connection from=":gneJ0_0" to="-gneE0" fromLane="0" toLane="0" dir="s" state="M"/>
    <connection from=":gneJ0_0" to="-gneE0" fromLane="1" toLane="1" dir="s" state="M"/>
    <connection from=":gneJ0_2" to="gneE5" fromLane="0" toLane="0" dir="s" state="M"/>
    <connection from=":gneJ0_2" to="gneE5" fromLane="1" toLane="1" dir="s" state="M"/>
    <connection from=":gneJ00_0" to="gneE2" fromLane="0" toLane="0" dir="s" state="M"/>
    <connection from=":gneJ00_1" to="gneE1" fromLane="0" toLane="0" dir="l" state="M"/>
    <connection from=":gneJ00_2" to="gneE3" fromLane="0" toLane="0" dir="s" state="M"/>
    <connection from=":gneJ00_3" to="gneE2" fromLane="0" toLane="0" dir="l" state="M"/>
    <connection from=":gneJ00_4" to="gneE0" fromLane="0" toLane="0" dir="s" state="M"/>
    <connection from=":gneJ00_5" to="gneE3" fromLane="0" toLane="0" dir="l" state="M"/>
    <connection from=":gneJ00_6" to="gneE1" fromLane="0" toLane="0" dir="s" state="M"/>
    <connection from=":gneJ00_7" to="gneE0" fromLane="0" toLane="0" dir="l" state="M"/>
    <connection from=":gneJ1_0" to="-gneE1" fromLane="0" toLane="0" dir="s" state="M"/>
    <connection from=":gneJ1_0" to="-gneE1" fromLane="1" toLane="1" dir="s" state="M"/>
    <connection from=":gneJ1_2" to="gneE4" fromLane="0" toLane="0" dir="s" state="M"/>
    <connection from=":gneJ1_2" to="gneE4" fromLane="1" toLane="1" dir="s" state="M"/>
    <connection from=":gneJ2_0" to="gneE7" fromLane="0" toLane="0" dir="s" state="M"/>
    <connection from=":gneJ2_0" to="gneE7" fromLane="1" toLane="1" dir="s" state="M"/>
    <connection from=":gneJ2_2" to="-gneE2" fromLane="0" toLane="0" dir="s" state="M"/>
    <connection from=":gneJ2_2" to="-gneE2" fromLane="1" toLane="1" dir="s" state="M"/>
    <connection from=":gneJ3_0" to="gneE6" fromLane="0" toLane="0" dir="s" state="M"/>
    <connection from=":gneJ3_0" to="gneE6" fromLane="1" toLane="1" dir="s" state="M"/>
    <connection from=":gneJ3_2" to="-gneE3" fromLane="0" toLane="0" dir="s" state="M"/>
    <connection from=":gneJ3_2" to="-gneE3" fromLane="1" toLane="1" dir="s" state="M"/>

</net>
